

        *** GPGPU-Sim Simulator Version 4.0.0  [build gpgpu-sim_git-commit-931a283a54201e014eab58ef3cf3ba4ed4ba865c_modified_3.0] ***


GPGPU-Sim PTX: simulation mode 0 (can change with PTX_SIM_MODE_FUNC environment variable:
               1=functional simulation only, 0=detailed performance simulator)
GPGPU-Sim PTX: overriding embedded ptx with ptx file (PTX_SIM_USE_PTX_FILE is set)
GPGPU-Sim: Configuration options:

-save_embedded_ptx                      0 # saves ptx files embedded in binary as <n>.ptx
-keep                                   0 # keep intermediate files created by GPGPU-Sim when interfacing with external programs
-gpgpu_ptx_save_converted_ptxplus                    0 # Saved converted ptxplus to a file
-gpgpu_occupancy_sm_number                   70 # The SM number to pass to ptxas when getting register usage for computing GPU occupancy. This parameter is required in the config.
-ptx_opcode_latency_int      4,13,4,5,145,21 # Opcode latencies for integers <ADD,MAX,MUL,MAD,DIV,SHFL>Default 1,1,19,25,145,32
-ptx_opcode_latency_fp          4,13,4,5,39 # Opcode latencies for single precision floating points <ADD,MAX,MUL,MAD,DIV>Default 1,1,1,1,30
-ptx_opcode_latency_dp         8,19,8,8,330 # Opcode latencies for double precision floating points <ADD,MAX,MUL,MAD,DIV>Default 8,8,8,8,335
-ptx_opcode_latency_sfu                  100 # Opcode latencies for SFU instructionsDefault 8
-ptx_opcode_latency_tesnor                   64 # Opcode latencies for Tensor instructionsDefault 64
-ptx_opcode_initiation_int          2,2,2,2,8,4 # Opcode initiation intervals for integers <ADD,MAX,MUL,MAD,DIV,SHFL>Default 1,1,4,4,32,4
-ptx_opcode_initiation_fp            2,2,2,2,4 # Opcode initiation intervals for single precision floating points <ADD,MAX,MUL,MAD,DIV>Default 1,1,1,1,5
-ptx_opcode_initiation_dp          4,4,4,4,130 # Opcode initiation intervals for double precision floating points <ADD,MAX,MUL,MAD,DIV>Default 8,8,8,8,130
-ptx_opcode_initiation_sfu                    8 # Opcode initiation intervals for sfu instructionsDefault 8
-ptx_opcode_initiation_tensor                   64 # Opcode initiation intervals for tensor instructionsDefault 64
-cdp_latency         7200,8000,100,12000,1600 # CDP API latency <cudaStreamCreateWithFlags, cudaGetParameterBufferV2_init_perWarp, cudaGetParameterBufferV2_perKernel, cudaLaunchDeviceV2_init_perWarp, cudaLaunchDevicV2_perKernel>Default 7200,8000,100,12000,1600
-network_mode                           2 # Interconnection network mode
-inter_config_file                   mesh # Interconnection network config file
-icnt_in_buffer_limit                  512 # in_buffer_limit
-icnt_out_buffer_limit                  512 # out_buffer_limit
-icnt_subnets                           2 # subnets
-icnt_arbiter_algo                      1 # arbiter_algo
-icnt_verbose                           0 # inct_verbose
-icnt_grant_cycles                      1 # grant_cycles
-gpgpu_ptx_use_cuobjdump                    1 # Use cuobjdump to extract ptx and sass from binaries
-gpgpu_experimental_lib_support                    0 # Try to extract code from cuda libraries [Broken because of unknown cudaGetExportTable]
-checkpoint_option                      0 #  checkpointing flag (0 = no checkpoint)
-checkpoint_kernel                      1 #  checkpointing during execution of which kernel (1- 1st kernel)
-checkpoint_CTA                         0 #  checkpointing after # of CTA (< less than total CTA)
-resume_option                          0 #  resume flag (0 = no resume)
-resume_kernel                          0 #  Resume from which kernel (1= 1st kernel)
-resume_CTA                             0 #  resume from which CTA 
-checkpoint_CTA_t                       0 #  resume from which CTA 
-checkpoint_insn_Y                      0 #  resume from which CTA 
-gpgpu_ptx_convert_to_ptxplus                    0 # Convert SASS (native ISA) to ptxplus and run ptxplus
-gpgpu_ptx_force_max_capability                   70 # Force maximum compute capability
-gpgpu_ptx_inst_debug_to_file                    0 # Dump executed instructions' debug information to file
-gpgpu_ptx_inst_debug_file       inst_debug.txt # Executed instructions' debug output file
-gpgpu_ptx_inst_debug_thread_uid                    1 # Thread UID for executed instructions' debug output
-gpgpu_simd_model                       1 # 1 = post-dominator
-gpgpu_shader_core_pipeline              2048:32 # shader core pipeline config, i.e., {<nthread>:<warpsize>}
-gpgpu_tex_cache:l1  N:4:128:256,L:R:m:N:L,T:512:8,128:2 # per-shader L1 texture cache  (READ-ONLY) config  {<nsets>:<bsize>:<assoc>,<rep>:<wr>:<alloc>:<wr_alloc>,<mshr>:<N>:<merge>,<mq>:<rf>}
-gpgpu_const_cache:l1 N:128:64:8,L:R:f:N:L,S:2:64,4 # per-shader L1 constant memory cache  (READ-ONLY) config  {<nsets>:<bsize>:<assoc>,<rep>:<wr>:<alloc>:<wr_alloc>,<mshr>:<N>:<merge>,<mq>} 
-gpgpu_cache:il1     N:64:128:16,L:R:f:N:L,S:2:48,4 # shader L1 instruction cache config  {<nsets>:<bsize>:<assoc>,<rep>:<wr>:<alloc>:<wr_alloc>,<mshr>:<N>:<merge>,<mq>} 
-gpgpu_cache:dl1     S:1:128:256,L:L:s:N:L,A:256:8,16:0,32 # per-shader L1 data cache config  {<nsets>:<bsize>:<assoc>,<rep>:<wr>:<alloc>:<wr_alloc>,<mshr>:<N>:<merge>,<mq> | none}
-gpgpu_l1_banks                         4 # The number of L1 cache banks
-gpgpu_l1_banks_byte_interleaving                   32 # l1 banks byte interleaving granularity
-gpgpu_l1_banks_hashing_function                    0 # l1 banks hashing function
-gpgpu_l1_latency                      20 # L1 Hit Latency
-gpgpu_smem_latency                    20 # smem Latency
-gpgpu_cache:dl1PrefL1                 none # per-shader L1 data cache config  {<nsets>:<bsize>:<assoc>,<rep>:<wr>:<alloc>:<wr_alloc>,<mshr>:<N>:<merge>,<mq> | none}
-gpgpu_cache:dl1PrefShared                 none # per-shader L1 data cache config  {<nsets>:<bsize>:<assoc>,<rep>:<wr>:<alloc>:<wr_alloc>,<mshr>:<N>:<merge>,<mq> | none}
-gpgpu_gmem_skip_L1D                    0 # global memory access skip L1D cache (implements -Xptxas -dlcm=cg, default=no skip)
-gpgpu_perfect_mem                      0 # enable perfect memory mode (no cache miss)
-n_regfile_gating_group                    4 # group of lanes that should be read/written together)
-gpgpu_clock_gated_reg_file                    0 # enable clock gated reg file for power calculations
-gpgpu_clock_gated_lanes                    0 # enable clock gated lanes for power calculations
-gpgpu_shader_registers                65536 # Number of registers per shader core. Limits number of concurrent CTAs. (default 8192)
-gpgpu_registers_per_block                65536 # Maximum number of registers per CTA. (default 8192)
-gpgpu_ignore_resources_limitation                    0 # gpgpu_ignore_resources_limitation (default 0)
-gpgpu_shader_cta                      32 # Maximum number of concurrent CTAs in shader (default 8)
-gpgpu_num_cta_barriers                   16 # Maximum number of named barriers per CTA (default 16)
-gpgpu_n_clusters                      80 # number of processing clusters
-gpgpu_n_cores_per_cluster                    1 # number of simd cores per cluster
-gpgpu_n_cluster_ejection_buffer_size                   32 # number of packets in ejection buffer
-gpgpu_n_ldst_response_buffer_size                    2 # number of response packets in ld/st unit ejection buffer
-gpgpu_shmem_per_block                65536 # Size of shared memory per thread block or CTA (default 48kB)
-gpgpu_shmem_size                   98304 # Size of shared memory per shader core (default 16kB)
-gpgpu_adaptive_cache_config                    1 # adaptive_cache_config
-gpgpu_shmem_sizeDefault                98304 # Size of shared memory per shader core (default 16kB)
-gpgpu_shmem_size_PrefL1                16384 # Size of shared memory per shader core (default 16kB)
-gpgpu_shmem_size_PrefShared                16384 # Size of shared memory per shader core (default 16kB)
-gpgpu_shmem_num_banks                   32 # Number of banks in the shared memory in each shader core (default 16)
-gpgpu_shmem_limited_broadcast                    0 # Limit shared memory to do one broadcast per cycle (default on)
-gpgpu_shmem_warp_parts                    1 # Number of portions a warp is divided into for shared memory bank conflict check 
-gpgpu_mem_unit_ports                    1 # The number of memory transactions allowed per core cycle
-gpgpu_shmem_warp_parts                    1 # Number of portions a warp is divided into for shared memory bank conflict check 
-gpgpu_warpdistro_shader                   -1 # Specify which shader core to collect the warp size distribution from
-gpgpu_warp_issue_shader                    0 # Specify which shader core to collect the warp issue distribution from
-gpgpu_local_mem_map                    1 # Mapping from local memory space address to simulated GPU physical address space (default = enabled)
-gpgpu_num_reg_banks                   16 # Number of register banks (default = 8)
-gpgpu_reg_bank_use_warp_id                    0 # Use warp ID in mapping registers to banks (default = off)
-gpgpu_sub_core_model                    1 # Sub Core Volta/Pascal model (default = off)
-gpgpu_enable_specialized_operand_collector                    0 # enable_specialized_operand_collector
-gpgpu_operand_collector_num_units_sp                    4 # number of collector units (default = 4)
-gpgpu_operand_collector_num_units_dp                    0 # number of collector units (default = 0)
-gpgpu_operand_collector_num_units_sfu                    4 # number of collector units (default = 4)
-gpgpu_operand_collector_num_units_int                    0 # number of collector units (default = 0)
-gpgpu_operand_collector_num_units_tensor_core                    4 # number of collector units (default = 4)
-gpgpu_operand_collector_num_units_mem                    2 # number of collector units (default = 2)
-gpgpu_operand_collector_num_units_gen                    8 # number of collector units (default = 0)
-gpgpu_operand_collector_num_in_ports_sp                    1 # number of collector unit in ports (default = 1)
-gpgpu_operand_collector_num_in_ports_dp                    0 # number of collector unit in ports (default = 0)
-gpgpu_operand_collector_num_in_ports_sfu                    1 # number of collector unit in ports (default = 1)
-gpgpu_operand_collector_num_in_ports_int                    0 # number of collector unit in ports (default = 0)
-gpgpu_operand_collector_num_in_ports_tensor_core                    1 # number of collector unit in ports (default = 1)
-gpgpu_operand_collector_num_in_ports_mem                    1 # number of collector unit in ports (default = 1)
-gpgpu_operand_collector_num_in_ports_gen                    8 # number of collector unit in ports (default = 0)
-gpgpu_operand_collector_num_out_ports_sp                    1 # number of collector unit in ports (default = 1)
-gpgpu_operand_collector_num_out_ports_dp                    0 # number of collector unit in ports (default = 0)
-gpgpu_operand_collector_num_out_ports_sfu                    1 # number of collector unit in ports (default = 1)
-gpgpu_operand_collector_num_out_ports_int                    0 # number of collector unit in ports (default = 0)
-gpgpu_operand_collector_num_out_ports_tensor_core                    1 # number of collector unit in ports (default = 1)
-gpgpu_operand_collector_num_out_ports_mem                    1 # number of collector unit in ports (default = 1)
-gpgpu_operand_collector_num_out_ports_gen                    8 # number of collector unit in ports (default = 0)
-gpgpu_coalesce_arch                   60 # Coalescing arch (GT200 = 13, Fermi = 20)
-gpgpu_num_sched_per_core                    4 # Number of warp schedulers per core
-gpgpu_max_insn_issue_per_warp                    1 # Max number of instructions that can be issued per warp in one cycle by scheduler (either 1 or 2)
-gpgpu_dual_issue_diff_exec_units                    1 # should dual issue use two different execution unit resources (Default = 1)
-gpgpu_simt_core_sim_order                    1 # Select the simulation order of cores in a cluster (0=Fix, 1=Round-Robin)
-gpgpu_pipeline_widths 4,4,4,4,4,4,4,4,4,4,8,4,4 # Pipeline widths ID_OC_SP,ID_OC_DP,ID_OC_INT,ID_OC_SFU,ID_OC_MEM,OC_EX_SP,OC_EX_DP,OC_EX_INT,OC_EX_SFU,OC_EX_MEM,EX_WB,ID_OC_TENSOR_CORE,OC_EX_TENSOR_CORE
-gpgpu_tensor_core_avail                    0 # Tensor Core Available (default=0)
-gpgpu_num_sp_units                     4 # Number of SP units (default=1)
-gpgpu_num_dp_units                     4 # Number of DP units (default=0)
-gpgpu_num_int_units                    4 # Number of INT units (default=0)
-gpgpu_num_sfu_units                    4 # Number of SF units (default=1)
-gpgpu_num_tensor_core_units                    0 # Number of tensor_core units (default=1)
-gpgpu_num_mem_units                    1 # Number if ldst units (default=1) WARNING: not hooked up to anything
-gpgpu_scheduler                      gto # Scheduler configuration: < lrr | gto | two_level_active > If two_level_active:<num_active_warps>:<inner_prioritization>:<outer_prioritization>For complete list of prioritization values see shader.h enum scheduler_prioritization_typeDefault: gto
-gpgpu_concurrent_kernel_sm                    0 # Support concurrent kernels on a SM (default = disabled)
-gpgpu_perfect_inst_const_cache                    1 # perfect inst and const cache mode, so all inst and const hits in the cache(default = disabled)
-gpgpu_inst_fetch_throughput                    4 # the number of fetched intruction per warp each cycle
-gpgpu_reg_file_port_throughput                    2 # the number ports of the register file
-specialized_unit_1         0,4,4,4,4,BRA # specialized unit config {<enabled>,<num_units>:<latency>:<initiation>,<ID_OC_SPEC>:<OC_EX_SPEC>,<NAME>}
-specialized_unit_2         0,4,4,4,4,BRA # specialized unit config {<enabled>,<num_units>:<latency>:<initiation>,<ID_OC_SPEC>:<OC_EX_SPEC>,<NAME>}
-specialized_unit_3         0,4,4,4,4,BRA # specialized unit config {<enabled>,<num_units>:<latency>:<initiation>,<ID_OC_SPEC>:<OC_EX_SPEC>,<NAME>}
-specialized_unit_4         0,4,4,4,4,BRA # specialized unit config {<enabled>,<num_units>:<latency>:<initiation>,<ID_OC_SPEC>:<OC_EX_SPEC>,<NAME>}
-specialized_unit_5         0,4,4,4,4,BRA # specialized unit config {<enabled>,<num_units>:<latency>:<initiation>,<ID_OC_SPEC>:<OC_EX_SPEC>,<NAME>}
-specialized_unit_6         0,4,4,4,4,BRA # specialized unit config {<enabled>,<num_units>:<latency>:<initiation>,<ID_OC_SPEC>:<OC_EX_SPEC>,<NAME>}
-specialized_unit_7         0,4,4,4,4,BRA # specialized unit config {<enabled>,<num_units>:<latency>:<initiation>,<ID_OC_SPEC>:<OC_EX_SPEC>,<NAME>}
-specialized_unit_8         0,4,4,4,4,BRA # specialized unit config {<enabled>,<num_units>:<latency>:<initiation>,<ID_OC_SPEC>:<OC_EX_SPEC>,<NAME>}
-gpgpu_perf_sim_memcpy                    1 # Fill the L2 cache on memcpy
-gpgpu_simple_dram_model                    0 # simple_dram_model with fixed latency and BW
-gpgpu_dram_scheduler                    1 # 0 = fifo, 1 = FR-FCFS (defaul)
-gpgpu_dram_partition_queues          64:64:64:64 # i2$:$2d:d2$:$2i
-l2_ideal                               0 # Use a ideal L2 cache that always hit
-gpgpu_cache:dl2     S:32:128:24,L:B:m:L:P,A:192:4,32:0,32 # unified banked L2 data cache config  {<nsets>:<bsize>:<assoc>,<rep>:<wr>:<alloc>:<wr_alloc>,<mshr>:<N>:<merge>,<mq>}
-gpgpu_cache:dl2_texture_only                    0 # L2 cache used for texture only
-gpgpu_n_mem                           32 # number of memory modules (e.g. memory controllers) in gpu
-gpgpu_n_sub_partition_per_mchannel                    2 # number of memory subpartition in each memory module
-gpgpu_n_mem_per_ctrlr                    1 # number of memory chips per memory controller
-gpgpu_memlatency_stat                   14 # track and display latency statistics 0x2 enables MC, 0x4 enables queue logs
-gpgpu_frfcfs_dram_sched_queue_size                   64 # 0 = unlimited (default); # entries per chip
-gpgpu_dram_return_queue_size                  192 # 0 = unlimited (default); # entries per chip
-gpgpu_dram_buswidth                   16 # default = 4 bytes (8 bytes per cycle at DDR)
-gpgpu_dram_burst_length                    2 # Burst length of each DRAM request (default = 4 data bus cycle)
-dram_data_command_freq_ratio                    2 # Frequency ratio between DRAM data bus and command bus (default = 2 times, i.e. DDR)
-gpgpu_dram_timing_opt nbk=16:CCD=1:RRD=4:RCD=14:RAS=33:RP=14:RC=47: CL=14:WL=2:CDLR=3:WR=12:nbkgrp=4:CCDL=2:RTPL=4 # DRAM timing parameters = {nbk:tCCD:tRRD:tRCD:tRAS:tRP:tRC:CL:WL:tCDLR:tWR:nbkgrp:tCCDL:tRTPL}
-gpgpu_l2_rop_latency                  160 # ROP queue latency (default 85)
-dram_latency                         100 # DRAM latency (default 30)
-dram_dual_bus_interface                    1 # dual_bus_interface (default = 0) 
-dram_bnk_indexing_policy                    0 # dram_bnk_indexing_policy (0 = normal indexing, 1 = Xoring with the higher bits) (Default = 0)
-dram_bnkgrp_indexing_policy                    1 # dram_bnkgrp_indexing_policy (0 = take higher bits, 1 = take lower bits) (Default = 0)
-dram_seperate_write_queue_enable                    0 # Seperate_Write_Queue_Enable
-dram_write_queue_size             32:28:16 # Write_Queue_Size
-dram_elimnate_rw_turnaround                    0 # elimnate_rw_turnaround i.e set tWTR and tRTW = 0
-icnt_flit_size                        40 # icnt_flit_size
-gpgpu_mem_addr_mapping dramid@8;00000000.00000000.00000000.00000000.0000RRRR.RRRRRRRR.RBBBCCCB.CCCSSSSS # mapping memory address to dram model {dramid@<start bit>;<memory address map>}
-gpgpu_mem_addr_test                    0 # run sweep test to check address mapping for aliased address
-gpgpu_mem_address_mask                    1 # 0 = old addressing mask, 1 = new addressing mask, 2 = new add. mask + flipped bank sel and chip sel bits
-gpgpu_memory_partition_indexing                    2 # 0 = no indexing, 1 = bitwise xoring, 2 = IPoly, 3 = custom indexing
-gpuwattch_xml_file         gpuwattch.xml # GPUWattch XML file
-power_simulation_enabled                    0 # Turn on power simulator (1=On, 0=Off)
-power_per_cycle_dump                    0 # Dump detailed power output each cycle
-power_trace_enabled                    0 # produce a file for the power trace (1=On, 0=Off)
-power_trace_zlevel                     6 # Compression level of the power trace output log (0=no comp, 9=highest)
-steady_power_levels_enabled                    0 # produce a file for the steady power levels (1=On, 0=Off)
-steady_state_definition                  8:4 # allowed deviation:number of samples
-gpgpu_max_cycle                        0 # terminates gpu simulation early (0 = no limit)
-gpgpu_max_insn                         0 # terminates gpu simulation early (0 = no limit)
-gpgpu_max_cta                          0 # terminates gpu simulation early (0 = no limit)
-gpgpu_max_completed_cta                    0 # terminates gpu simulation early (0 = no limit)
-gpgpu_runtime_stat                   500 # display runtime statistics such as dram utilization {<freq>:<flag>}
-liveness_message_freq                    1 # Minimum number of seconds between simulation liveness messages (0 = always print)
-gpgpu_compute_capability_major                    7 # Major compute capability version number
-gpgpu_compute_capability_minor                    0 # Minor compute capability version number
-gpgpu_flush_l1_cache                    1 # Flush L1 cache at the end of each kernel call
-gpgpu_flush_l2_cache                    0 # Flush L2 cache at the end of each kernel call
-gpgpu_deadlock_detect                    1 # Stop the simulation at deadlock (1=on (default), 0=off)
-gpgpu_ptx_instruction_classification                    0 # if enabled will classify ptx instruction types per kernel (Max 255 kernels now)
-gpgpu_ptx_sim_mode                     0 # Select between Performance (default) or Functional simulation (1)
-gpgpu_clock_domains 1200.0:1200.0:1200.0:1000.0 # Clock Domain Frequencies in MhZ {<Core Clock>:<ICNT Clock>:<L2 Clock>:<DRAM Clock>}
-gpgpu_max_concurrent_kernel                    8 # maximum kernels that can run concurrently on GPU
-gpgpu_cflog_interval                    0 # Interval between each snapshot in control flow logger
-visualizer_enabled                     0 # Turn on visualizer output (1=On, 0=Off)
-visualizer_outputfile                 NULL # Specifies the output log file for visualizer
-visualizer_zlevel                      6 # Compression level of the visualizer output log (0=no comp, 9=highest)
-gpgpu_stack_size_limit                 1024 # GPU thread stack size
-gpgpu_heap_size_limit              8388608 # GPU malloc heap size167485dbc2c2349dc977844a3ce42fc9  /mnt/users/ssd1/homes/akkamath/gpgpu-sim_distribution/precompiled_bin/sgemm
Extracting PTX file and ptxas options    1: sgemm.1.sm_52.ptx -arch=sm_52
 
-gpgpu_runtime_sync_depth_limit                    2 # GPU device runtime synchronize depth
-gpgpu_runtime_pending_launch_count_limit                 2048 # GPU device runtime pending launch count
-trace_enabled                          0 # Turn on traces
-trace_components                    none # comma seperated list of traces to enable. Complete list found in trace_streams.tup. Default none
-trace_sampling_core                    0 # The core which is printed using CORE_DPRINTF. Default 0
-trace_sampling_memory_partition                   -1 # The memory partition which is printed using MEMPART_DPRINTF. Default -1 (i.e. all)
-enable_ptx_file_line_stats                    1 # Turn on PTX source line statistic profiling. (1 = On)
-ptx_line_stats_filename gpgpu_inst_stats.txt # Output file for PTX source line statistics.
-gpgpu_kernel_launch_latency                 5000 # Kernel launch latency in cycles. Default: 0
-gpgpu_cdp_enabled                      0 # Turn on CDP
-gpgpu_TB_launch_latency                    0 # thread block launch latency in cycles. Default: 0
DRAM Timing Options:
nbk                                    16 # number of banks
CCD                                     1 # column to column delay
RRD                                     4 # minimal delay between activation of rows in different banks
RCD                                    14 # row to column delay
RAS                                    33 # time needed to activate row
RP                                     14 # time needed to precharge (deactivate) row
RC                                     47 # row cycle time
CDLR                                    3 # switching from write to read (changes tWTR)
WR                                     12 # last data-in to row precharge
CL                                     14 # CAS latency
WL                                      2 # Write latency
nbkgrp                                  4 # number of bank groups
CCDL                                    2 # column to column delay between accesses to different bank groups
RTPL                                    4 # read to precharge delay between accesses to different bank groups
Total number of memory sub partition = 64
addr_dec_mask[CHIP]  = 0000000000001f00 	high:13 low:8
addr_dec_mask[BK]    = 00000000000e2000 	high:20 low:13
addr_dec_mask[ROW]   = 00000001fff00000 	high:33 low:20
addr_dec_mask[COL]   = 000000000001c0ff 	high:17 low:0
addr_dec_mask[BURST] = 000000000000001f 	high:5 low:0
sub_partition_id_mask = 0000000000002000
GPGPU-Sim uArch: clock freqs: 1200000000.000000:1200000000.000000:1200000000.000000:1000000000.000000
GPGPU-Sim uArch: clock periods: 0.00000000083333333333:0.00000000083333333333:0.00000000083333333333:0.00000000100000000000
*** Initializing Memory Statistics ***
GPGPU-Sim uArch: performance model initialization complete.
self exe links to: /mnt/users/ssd1/homes/akkamath/gpgpu-sim_distribution/precompiled_bin/sgemm
self exe links to: /mnt/users/ssd1/homes/akkamath/gpgpu-sim_distribution/precompiled_bin/sgemm
11.0
GPGPU-Sim PTX: __cudaRegisterFatBinary, fat_cubin_handle = 1, filename=default
self exe links to: /mnt/users/ssd1/homes/akkamath/gpgpu-sim_distribution/precompiled_bin/sgemm
Running md5sum using "md5sum /mnt/users/ssd1/homes/akkamath/gpgpu-sim_distribution/precompiled_bin/sgemm "
self exe links to: /mnt/users/ssd1/homes/akkamath/gpgpu-sim_distribution/precompiled_bin/sgemm
Extracting specific PTX file named sgemm.1.sm_52.ptx 
GPGPU-Sim PTX: __cudaRegisterFunction _ZN7cutlass6KernelINS_4gemm6kernel4GemmINS1_11threadblock12MmaPipelinedINS1_9GemmShapeILi128ELi128ELi8EEENS_9transform11threadblock22PredicatedTileIteratorINS_11MatrixShapeILi128ELi8EEEfNS_6layout8RowMajorELi1ENS8_30PitchLinearStripminedThreadMapINS_16PitchLinearShapeILi8ELi128EEELi256ELi1EEELi1EEENS9_19RegularTileIteratorISC_fNSD_11ColumnMajorELi1ENS8_33TransposePitchLinearThreadMapSimtISI_EELi4EEENSA_INSB_ILi8ELi128EEEfSE_Li0ENSF_INSG_ILi128ELi8EEELi256ELi1EEELi1EEENSK_ISP_fSE_Li0ESR_Li4EEEfSE_NS4_9MmaPolicyINS1_4warp7MmaSimtINS6_ILi32ELi64ELi8EEEfSL_fSE_fSE_NSV_13MmaSimtPolicyINSB_ILi4ELi8EEENSD_19RowMajorInterleavedILi2EEENS6_ILi4ELi4ELi1EEEEELi1ELNS_16ComplexTransformE0ELS14_0EbEENSB_ILi4ELi0EEENSB_ILi0ELi0EEELi1EEENS_21NumericArrayConverterIffLi4ELNS_15FloatRoundStyleE2EEES1B_bEENS_8epilogue11threadblock8EpilogueIS7_S15_Li1ENS1E_22PredicatedTileIteratorINS1E_26OutputTileOptimalThreadMapINS1E_15OutputTileShapeILi128ELi1ELi4ELi4ELi1EEENS1I_ILi1ELi4ELi2ELi1ELi8EEELi256ELi1ELi32EEEfLb0EEENS1D_4warp20FragmentIteratorSimtISX_NS1_6thread3MmaINS6_ILi8ELi8ELi1EEEfSL_fSE_fSE_NS_4arch13OpMultiplyAddEbEESE_S13_EENS1N_16TileIteratorSimtISX_S1U_fSE_S13_EENS1E_18SharedLoadIteratorINS1L_18CompactedThreadMapEfLi4EEENS1D_6thread17LinearCombinationIfLi1EffLNS21_9ScaleType4KindE0ELS1A_2EEENSB_ILi0ELi17EEELi1ELi1EEENS4_30GemmIdentityThreadblockSwizzleILi1EEELb0EEEEEvNT_6ParamsE : hostFun 0x0x4025b0, fat_cubin_handle = 1
GPGPU-Sim PTX: Parsing sgemm.1.sm_52.ptx
GPGPU-Sim PTX: allocating shared region for "_ZN7cutlass17SharedStorageBaseE" from 0x0 to 0x0 (shared memory space)
GPGPU-Sim PTX: Warning -- ignoring pragma 'nounroll'
GPGPU-Sim PTX: instruction assembly for function '_ZN7cutlass6KernelINS_4gemm6kernel4GemmINS1_11threadblock12MmaPipelinedINS1_9GemmShapeILi128ELi128ELi8EEENS_9transform11threadblock22PredicatedTileIteratorINS_11MatrixShapeILi128ELi8EEEfNS_6layout8RowMajorELi1ENS8_30PitchLinearStripminedThreadMapINS_16PitchLinearShapeILi8ELi128EEELi256ELi1EEELi1EEENS9_19RegularTileIteratorISC_fNSD_11ColumnMajorELi1ENS8_33TransposePitchLinearThreadMapSimtISI_EELi4EEENSA_INSB_ILi8ELi128EEEfSE_Li0ENSF_INSG_ILi128ELi8EEELi256ELi1EEELi1EEENSK_ISP_fSE_Li0ESR_Li4EEEfSE_NS4_9MmaPolicyINS1_4warp7MmaSimtINS6_ILi32ELi64ELi8EEEfSL_fSE_fSE_NSV_13MmaSimtPolicyINSB_ILi4ELi8EEENSD_19RowMajorInterleavedILi2EEENS6_ILi4ELi4ELi1EEEEELi1ELNS_16ComplexTransformE0ELS14_0EbEENSB_ILi4ELi0EEENSB_ILi0ELi0EEELi1EEENS_21NumericArrayConverterIffLi4ELNS_15FloatRoundStyleE2EEES1B_bEENS_8epilogue11threadblock8EpilogueIS7_S15_Li1ENS1E_22PredicatedTileIteratorINS1E_26OutputTileOptimalThreadMapINS1E_15OutputTileShapeILi128ELi1ELi4ELi4ELi1EEENS1I_ILi1ELi4ELi2ELi1ELi8EEELi256ELi1ELi32EEEfLb0EEENS1D_4warp20FragmentIteratorSimtISX_NS1_6thread3MmaINS6_ILi8ELi8ELi1EEEfSL_fSE_fSE_NS_4arch13OpMultiplyAddEbEESE_S13_EENS1N_16TileIteratorSimtISX_S1U_fSE_S13_EENS1E_18SharedLoadIteratorINS1L_18CompactedThreadMapEfLi4EEENS1D_6thread17LinearCombinationIfLi1EffLNS21_9ScaleType4KindE0ELS1A_2EEENSB_ILi0ELi17EEELi1ELi1EEENS4_30GemmIdentityThreadblockSwizzleILi1EEELb0EEEEEvNT_6ParamsE'...   done.
GPGPU-Sim PTX: finished parsing EMBEDDED .ptx file sgemm.1.sm_52.ptx
GPGPU-Sim PTX: loading globals with explicit initializers... 
GPGPU-Sim PTX: finished loading globals (0 bytes total).
GPGPU-Sim PTX: loading constants with explicit initializers...  done.
GPGPU-Sim PTX: Loading PTXInfo from sgemm.1.sm_52.ptx
GPGPU-Sim PTX: Kernel '_ZN7cutlass6KernelINS_4gemm6kernel4GemmINS1_11threadblock12MmaPipelinedINS1_9GemmShapeILi128ELi128ELi8EEENS_9transform11threadblock22PredicatedTileIteratorINS_11MatrixShapeILi128ELi8EEEfNS_6layout8RowMajorELi1ENS8_30PitchLinearStripminedThreadMapINS_16PitchLinearShapeILi8ELi128EEELi256ELi1EEELi1EEENS9_19RegularTileIteratorISC_fNSD_11ColumnMajorELi1ENS8_33TransposePitchLinearThreadMapSimtISI_EELi4EEENSA_INSB_ILi8ELi128EEEfSE_Li0ENSF_INSG_ILi128ELi8EEELi256ELi1EEELi1EEENSK_ISP_fSE_Li0ESR_Li4EEEfSE_NS4_9MmaPolicyINS1_4warp7MmaSimtINS6_ILi32ELi64ELi8EEEfSL_fSE_fSE_NSV_13MmaSimtPolicyINSB_ILi4ELi8EEENSD_19RowMajorInterleavedILi2EEENS6_ILi4ELi4ELi1EEEEELi1ELNS_16ComplexTransformE0ELS14_0EbEENSB_ILi4ELi0EEENSB_ILi0ELi0EEELi1EEENS_21NumericArrayConverterIffLi4ELNS_15FloatRoundStyleE2EEES1B_bEENS_8epilogue11threadblock8EpilogueIS7_S15_Li1ENS1E_22PredicatedTileIteratorINS1E_26OutputTileOptimalThreadMapINS1E_15OutputTileShapeILi128ELi1ELi4ELi4ELi1EEENS1I_ILi1ELi4ELi2ELi1ELi8EEELi256ELi1ELi32EEEfLb0EEENS1D_4warp20FragmentIteratorSimtISX_NS1_6thread3MmaINS6_ILi8ELi8ELi1EEEfSL_fSE_fSE_NS_4arch13OpMultiplyAddEbEESE_S13_EENS1N_16TileIteratorSimtISX_S1U_fSE_S13_EENS1E_18SharedLoadIteratorINS1L_18CompactedThreadMapEfLi4EEENS1D_6thread17LinearCombinationIfLi1EffLNS21_9ScaleType4KindE0ELS1A_2EEENSB_ILi0ELi17EEELi1ELi1EEENS4_30GemmIdentityThreadblockSwizzleILi1EEELb0EEEEEvNT_6ParamsE' : regs=168, lmem=0, smem=0, cmem=648
Square matrix size: 4096
GPGPU-Sim PTX: Setting up arguments for 328 bytes starting at 0x7ffc02cf6500..

GPGPU-Sim PTX: cudaLaunch for 0x0x4025b0 (mode=performance simulation) on stream 0
GPGPU-Sim PTX: finding reconvergence points for '_ZN7cutlass6KernelINS_4gemm6kernel4GemmINS1_11threadblock12MmaPipelinedINS1_9GemmShapeILi128ELi128ELi8EEENS_9transform11threadblock22PredicatedTileIteratorINS_11MatrixShapeILi128ELi8EEEfNS_6layout8RowMajorELi1ENS8_30PitchLinearStripminedThreadMapINS_16PitchLinearShapeILi8ELi128EEELi256ELi1EEELi1EEENS9_19RegularTileIteratorISC_fNSD_11ColumnMajorELi1ENS8_33TransposePitchLinearThreadMapSimtISI_EELi4EEENSA_INSB_ILi8ELi128EEEfSE_Li0ENSF_INSG_ILi128ELi8EEELi256ELi1EEELi1EEENSK_ISP_fSE_Li0ESR_Li4EEEfSE_NS4_9MmaPolicyINS1_4warp7MmaSimtINS6_ILi32ELi64ELi8EEEfSL_fSE_fSE_NSV_13MmaSimtPolicyINSB_ILi4ELi8EEENSD_19RowMajorInterleavedILi2EEENS6_ILi4ELi4ELi1EEEEELi1ELNS_16ComplexTransformE0ELS14_0EbEENSB_ILi4ELi0EEENSB_ILi0ELi0EEELi1EEENS_21NumericArrayConverterIffLi4ELNS_15FloatRoundStyleE2EEES1B_bEENS_8epilogue11threadblock8EpilogueIS7_S15_Li1ENS1E_22PredicatedTileIteratorINS1E_26OutputTileOptimalThreadMapINS1E_15OutputTileShapeILi128ELi1ELi4ELi4ELi1EEENS1I_ILi1ELi4ELi2ELi1ELi8EEELi256ELi1ELi32EEEfLb0EEENS1D_4warp20FragmentIteratorSimtISX_NS1_6thread3MmaINS6_ILi8ELi8ELi1EEEfSL_fSE_fSE_NS_4arch13OpMultiplyAddEbEESE_S13_EENS1N_16TileIteratorSimtISX_S1U_fSE_S13_EENS1E_18SharedLoadIteratorINS1L_18CompactedThreadMapEfLi4EEENS1D_6thread17LinearCombinationIfLi1EffLNS21_9ScaleType4KindE0ELS1A_2EEENSB_ILi0ELi17EEELi1ELi1EEENS4_30GemmIdentityThreadblockSwizzleILi1EEELb0EEEEEvNT_6ParamsE'...
GPGPU-Sim PTX: Finding dominators for '_ZN7cutlass6KernelINS_4gemm6kernel4GemmINS1_11threadblock12MmaPipelinedINS1_9GemmShapeILi128ELi128ELi8EEENS_9transform11threadblock22PredicatedTileIteratorINS_11MatrixShapeILi128ELi8EEEfNS_6layout8RowMajorELi1ENS8_30PitchLinearStripminedThreadMapINS_16PitchLinearShapeILi8ELi128EEELi256ELi1EEELi1EEENS9_19RegularTileIteratorISC_fNSD_11ColumnMajorELi1ENS8_33TransposePitchLinearThreadMapSimtISI_EELi4EEENSA_INSB_ILi8ELi128EEEfSE_Li0ENSF_INSG_ILi128ELi8EEELi256ELi1EEELi1EEENSK_ISP_fSE_Li0ESR_Li4EEEfSE_NS4_9MmaPolicyINS1_4warp7MmaSimtINS6_ILi32ELi64ELi8EEEfSL_fSE_fSE_NSV_13MmaSimtPolicyINSB_ILi4ELi8EEENSD_19RowMajorInterleavedILi2EEENS6_ILi4ELi4ELi1EEEEELi1ELNS_16ComplexTransformE0ELS14_0EbEENSB_ILi4ELi0EEENSB_ILi0ELi0EEELi1EEENS_21NumericArrayConverterIffLi4ELNS_15FloatRoundStyleE2EEES1B_bEENS_8epilogue11threadblock8EpilogueIS7_S15_Li1ENS1E_22PredicatedTileIteratorINS1E_26OutputTileOptimalThreadMapINS1E_15OutputTileShapeILi128ELi1ELi4ELi4ELi1EEENS1I_ILi1ELi4ELi2ELi1ELi8EEELi256ELi1ELi32EEEfLb0EEENS1D_4warp20FragmentIteratorSimtISX_NS1_6thread3MmaINS6_ILi8ELi8ELi1EEEfSL_fSE_fSE_NS_4arch13OpMultiplyAddEbEESE_S13_EENS1N_16TileIteratorSimtISX_S1U_fSE_S13_EENS1E_18SharedLoadIteratorINS1L_18CompactedThreadMapEfLi4EEENS1D_6thread17LinearCombinationIfLi1EffLNS21_9ScaleType4KindE0ELS1A_2EEENSB_ILi0ELi17EEELi1ELi1EEENS4_30GemmIdentityThreadblockSwizzleILi1EEELb0EEEEEvNT_6ParamsE'...
GPGPU-Sim PTX: Finding immediate dominators for '_ZN7cutlass6KernelINS_4gemm6kernel4GemmINS1_11threadblock12MmaPipelinedINS1_9GemmShapeILi128ELi128ELi8EEENS_9transform11threadblock22PredicatedTileIteratorINS_11MatrixShapeILi128ELi8EEEfNS_6layout8RowMajorELi1ENS8_30PitchLinearStripminedThreadMapINS_16PitchLinearShapeILi8ELi128EEELi256ELi1EEELi1EEENS9_19RegularTileIteratorISC_fNSD_11ColumnMajorELi1ENS8_33TransposePitchLinearThreadMapSimtISI_EELi4EEENSA_INSB_ILi8ELi128EEEfSE_Li0ENSF_INSG_ILi128ELi8EEELi256ELi1EEELi1EEENSK_ISP_fSE_Li0ESR_Li4EEEfSE_NS4_9MmaPolicyINS1_4warp7MmaSimtINS6_ILi32ELi64ELi8EEEfSL_fSE_fSE_NSV_13MmaSimtPolicyINSB_ILi4ELi8EEENSD_19RowMajorInterleavedILi2EEENS6_ILi4ELi4ELi1EEEEELi1ELNS_16ComplexTransformE0ELS14_0EbEENSB_ILi4ELi0EEENSB_ILi0ELi0EEELi1EEENS_21NumericArrayConverterIffLi4ELNS_15FloatRoundStyleE2EEES1B_bEENS_8epilogue11threadblock8EpilogueIS7_S15_Li1ENS1E_22PredicatedTileIteratorINS1E_26OutputTileOptimalThreadMapINS1E_15OutputTileShapeILi128ELi1ELi4ELi4ELi1EEENS1I_ILi1ELi4ELi2ELi1ELi8EEELi256ELi1ELi32EEEfLb0EEENS1D_4warp20FragmentIteratorSimtISX_NS1_6thread3MmaINS6_ILi8ELi8ELi1EEEfSL_fSE_fSE_NS_4arch13OpMultiplyAddEbEESE_S13_EENS1N_16TileIteratorSimtISX_S1U_fSE_S13_EENS1E_18SharedLoadIteratorINS1L_18CompactedThreadMapEfLi4EEENS1D_6thread17LinearCombinationIfLi1EffLNS21_9ScaleType4KindE0ELS1A_2EEENSB_ILi0ELi17EEELi1ELi1EEENS4_30GemmIdentityThreadblockSwizzleILi1EEELb0EEEEEvNT_6ParamsE'...
GPGPU-Sim PTX: Finding postdominators for '_ZN7cutlass6KernelINS_4gemm6kernel4GemmINS1_11threadblock12MmaPipelinedINS1_9GemmShapeILi128ELi128ELi8EEENS_9transform11threadblock22PredicatedTileIteratorINS_11MatrixShapeILi128ELi8EEEfNS_6layout8RowMajorELi1ENS8_30PitchLinearStripminedThreadMapINS_16PitchLinearShapeILi8ELi128EEELi256ELi1EEELi1EEENS9_19RegularTileIteratorISC_fNSD_11ColumnMajorELi1ENS8_33TransposePitchLinearThreadMapSimtISI_EELi4EEENSA_INSB_ILi8ELi128EEEfSE_Li0ENSF_INSG_ILi128ELi8EEELi256ELi1EEELi1EEENSK_ISP_fSE_Li0ESR_Li4EEEfSE_NS4_9MmaPolicyINS1_4warp7MmaSimtINS6_ILi32ELi64ELi8EEEfSL_fSE_fSE_NSV_13MmaSimtPolicyINSB_ILi4ELi8EEENSD_19RowMajorInterleavedILi2EEENS6_ILi4ELi4ELi1EEEEELi1ELNS_16ComplexTransformE0ELS14_0EbEENSB_ILi4ELi0EEENSB_ILi0ELi0EEELi1EEENS_21NumericArrayConverterIffLi4ELNS_15FloatRoundStyleE2EEES1B_bEENS_8epilogue11threadblock8EpilogueIS7_S15_Li1ENS1E_22PredicatedTileIteratorINS1E_26OutputTileOptimalThreadMapINS1E_15OutputTileShapeILi128ELi1ELi4ELi4ELi1EEENS1I_ILi1ELi4ELi2ELi1ELi8EEELi256ELi1ELi32EEEfLb0EEENS1D_4warp20FragmentIteratorSimtISX_NS1_6thread3MmaINS6_ILi8ELi8ELi1EEEfSL_fSE_fSE_NS_4arch13OpMultiplyAddEbEESE_S13_EENS1N_16TileIteratorSimtISX_S1U_fSE_S13_EENS1E_18SharedLoadIteratorINS1L_18CompactedThreadMapEfLi4EEENS1D_6thread17LinearCombinationIfLi1EffLNS21_9ScaleType4KindE0ELS1A_2EEENSB_ILi0ELi17EEELi1ELi1EEENS4_30GemmIdentityThreadblockSwizzleILi1EEELb0EEEEEvNT_6ParamsE'...
GPGPU-Sim PTX: Finding immediate postdominators for '_ZN7cutlass6KernelINS_4gemm6kernel4GemmINS1_11threadblock12MmaPipelinedINS1_9GemmShapeILi128ELi128ELi8EEENS_9transform11threadblock22PredicatedTileIteratorINS_11MatrixShapeILi128ELi8EEEfNS_6layout8RowMajorELi1ENS8_30PitchLinearStripminedThreadMapINS_16PitchLinearShapeILi8ELi128EEELi256ELi1EEELi1EEENS9_19RegularTileIteratorISC_fNSD_11ColumnMajorELi1ENS8_33TransposePitchLinearThreadMapSimtISI_EELi4EEENSA_INSB_ILi8ELi128EEEfSE_Li0ENSF_INSG_ILi128ELi8EEELi256ELi1EEELi1EEENSK_ISP_fSE_Li0ESR_Li4EEEfSE_NS4_9MmaPolicyINS1_4warp7MmaSimtINS6_ILi32ELi64ELi8EEEfSL_fSE_fSE_NSV_13MmaSimtPolicyINSB_ILi4ELi8EEENSD_19RowMajorInterleavedILi2EEENS6_ILi4ELi4ELi1EEEEELi1ELNS_16ComplexTransformE0ELS14_0EbEENSB_ILi4ELi0EEENSB_ILi0ELi0EEELi1EEENS_21NumericArrayConverterIffLi4ELNS_15FloatRoundStyleE2EEES1B_bEENS_8epilogue11threadblock8EpilogueIS7_S15_Li1ENS1E_22PredicatedTileIteratorINS1E_26OutputTileOptimalThreadMapINS1E_15OutputTileShapeILi128ELi1ELi4ELi4ELi1EEENS1I_ILi1ELi4ELi2ELi1ELi8EEELi256ELi1ELi32EEEfLb0EEENS1D_4warp20FragmentIteratorSimtISX_NS1_6thread3MmaINS6_ILi8ELi8ELi1EEEfSL_fSE_fSE_NS_4arch13OpMultiplyAddEbEESE_S13_EENS1N_16TileIteratorSimtISX_S1U_fSE_S13_EENS1E_18SharedLoadIteratorINS1L_18CompactedThreadMapEfLi4EEENS1D_6thread17LinearCombinationIfLi1EffLNS21_9ScaleType4KindE0ELS1A_2EEENSB_ILi0ELi17EEELi1ELi1EEENS4_30GemmIdentityThreadblockSwizzleILi1EEELb0EEEEEvNT_6ParamsE'...
GPGPU-Sim PTX: pre-decoding instructions for '_ZN7cutlass6KernelINS_4gemm6kernel4GemmINS1_11threadblock12MmaPipelinedINS1_9GemmShapeILi128ELi128ELi8EEENS_9transform11threadblock22PredicatedTileIteratorINS_11MatrixShapeILi128ELi8EEEfNS_6layout8RowMajorELi1ENS8_30PitchLinearStripminedThreadMapINS_16PitchLinearShapeILi8ELi128EEELi256ELi1EEELi1EEENS9_19RegularTileIteratorISC_fNSD_11ColumnMajorELi1ENS8_33TransposePitchLinearThreadMapSimtISI_EELi4EEENSA_INSB_ILi8ELi128EEEfSE_Li0ENSF_INSG_ILi128ELi8EEELi256ELi1EEELi1EEENSK_ISP_fSE_Li0ESR_Li4EEEfSE_NS4_9MmaPolicyINS1_4warp7MmaSimtINS6_ILi32ELi64ELi8EEEfSL_fSE_fSE_NSV_13MmaSimtPolicyINSB_ILi4ELi8EEENSD_19RowMajorInterleavedILi2EEENS6_ILi4ELi4ELi1EEEEELi1ELNS_16ComplexTransformE0ELS14_0EbEENSB_ILi4ELi0EEENSB_ILi0ELi0EEELi1EEENS_21NumericArrayConverterIffLi4ELNS_15FloatRoundStyleE2EEES1B_bEENS_8epilogue11threadblock8EpilogueIS7_S15_Li1ENS1E_22PredicatedTileIteratorINS1E_26OutputTileOptimalThreadMapINS1E_15OutputTileShapeILi128ELi1ELi4ELi4ELi1EEENS1I_ILi1ELi4ELi2ELi1ELi8EEELi256ELi1ELi32EEEfLb0EEENS1D_4warp20FragmentIteratorSimtISX_NS1_6thread3MmaINS6_ILi8ELi8ELi1EEEfSL_fSE_fSE_NS_4arch13OpMultiplyAddEbEESE_S13_EENS1N_16TileIteratorSimtISX_S1U_fSE_S13_EENS1E_18SharedLoadIteratorINS1L_18CompactedThreadMapEfLi4EEENS1D_6thread17LinearCombinationIfLi1EffLNS21_9ScaleType4KindE0ELS1A_2EEENSB_ILi0ELi17EEELi1ELi1EEENS4_30GemmIdentityThreadblockSwizzleILi1EEELb0EEEEEvNT_6ParamsE'...
GPGPU-Sim PTX: reconvergence points for _ZN7cutlass6KernelINS_4gemm6kernel4GemmINS1_11threadblock12MmaPipelinedINS1_9GemmShapeILi128ELi128ELi8EEENS_9transform11threadblock22PredicatedTileIteratorINS_11MatrixShapeILi128ELi8EEEfNS_6layout8RowMajorELi1ENS8_30PitchLinearStripminedThreadMapINS_16PitchLinearShapeILi8ELi128EEELi256ELi1EEELi1EEENS9_19RegularTileIteratorISC_fNSD_11ColumnMajorELi1ENS8_33TransposePitchLinearThreadMapSimtISI_EELi4EEENSA_INSB_ILi8ELi128EEEfSE_Li0ENSF_INSG_ILi128ELi8EEELi256ELi1EEELi1EEENSK_ISP_fSE_Li0ESR_Li4EEEfSE_NS4_9MmaPolicyINS1_4warp7MmaSimtINS6_ILi32ELi64ELi8EEEfSL_fSE_fSE_NSV_13MmaSimtPolicyINSB_ILi4ELi8EEENSD_19RowMajorInterleavedILi2EEENS6_ILi4ELi4ELi1EEEEELi1ELNS_16ComplexTransformE0ELS14_0EbEENSB_ILi4ELi0EEENSB_ILi0ELi0EEELi1EEENS_21NumericArrayConverterIffLi4ELNS_15FloatRoundStyleE2EEES1B_bEENS_8epilogue11threadblock8EpilogueIS7_S15_Li1ENS1E_22PredicatedTileIteratorINS1E_26OutputTileOptimalThreadMapINS1E_15OutputTileShapeILi128ELi1ELi4ELi4ELi1EEENS1I_ILi1ELi4ELi2ELi1ELi8EEELi256ELi1ELi32EEEfLb0EEENS1D_4warp20FragmentIteratorSimtISX_NS1_6thread3MmaINS6_ILi8ELi8ELi1EEEfSL_fSE_fSE_NS_4arch13OpMultiplyAddEbEESE_S13_EENS1N_16TileIteratorSimtISX_S1U_fSE_S13_EENS1E_18SharedLoadIteratorINS1L_18CompactedThreadMapEfLi4EEENS1D_6thread17LinearCombinationIfLi1EffLNS21_9ScaleType4KindE0ELS1A_2EEENSB_ILi0ELi17EEELi1ELi1EEENS4_30GemmIdentityThreadblockSwizzleILi1EEELb0EEEEEvNT_6ParamsE...
GPGPU-Sim PTX:  1 (potential) branch divergence @  PC=0x0b8 (sgemm.1.sm_52.ptx:50) @%p4 bra $L__BB0_14;
GPGPU-Sim PTX:    immediate post dominator      @  PC=0x5630 (sgemm.1.sm_52.ptx:4058) ret;
GPGPU-Sim PTX:  2 (potential) branch divergence @  PC=0x840 (sgemm.1.sm_52.ptx:340) @%p24 bra $L__BB0_7;
GPGPU-Sim PTX:    immediate post dominator      @  PC=0x2088 (sgemm.1.sm_52.ptx:1177) ld.param.u64 %rd306, [_ZN7cutlass6KernelINS_4gemm6kernel4GemmINS1_11threadblock12MmaPipelinedINS1_9GemmShapeILi128ELi128ELi8EEENS_9transform11threadblock22PredicatedTileIteratorINS_11MatrixShapeILi128ELi8EEEfNS_6layout8RowMajorELi1ENS8_30PitchLinearStripminedThreadMapINS_16PitchLinearShapeILi8ELi128EEELi256ELi1EEELi1EEENS9_19RegularTileIteratorISC_fNSD_11ColumnMajorELi1ENS8_33TransposePitchLinearThreadMapSimtISI_EELi4EEENSA_INSB_ILi8ELi128EEEfSE_Li0ENSF_INSG_ILi128ELi8EEELi256ELi1EEELi1EEENSK_ISP_fSE_Li0ESR_Li4EEEfSE_NS4_9MmaPolicyINS1_4warp7MmaSimtINS6_ILi32ELi64ELi8EEEfSL_fSE_fSE_NSV_13MmaSimtPolicyINSB_ILi4ELi8EEENSD_19RowMajorInterleavedILi2EEENS6_ILi4ELi4ELi1EEEEELi1ELNS_16ComplexTransformE0ELS14_0EbEENSB_ILi4ELi0EEENSB_ILi0ELi0EEELi1EEENS_21NumericArrayConverterIffLi4ELNS_15FloatRoundStyleE2EEES1B_bEENS_8epilogue11threadblock8EpilogueIS7_S15_Li1ENS1E_22PredicatedTileIteratorINS1E_26OutputTileOptimalThreadMapINS1E_15OutputTileShapeILi128ELi1ELi4ELi4ELi1EEENS1I_ILi1ELi
GPGPU-Sim PTX:  3 (potential) branch divergence @  PC=0x1d68 (sgemm.1.sm_52.ptx:1069) @%p26 bra $L__BB0_5;
GPGPU-Sim PTX:    immediate post dominator      @  PC=0x1dc0 (sgemm.1.sm_52.ptx:1086) setp.gt.s32 %p27, %r869, 2;
GPGPU-Sim PTX:  4 (potential) branch divergence @  PC=0x1d70 (sgemm.1.sm_52.ptx:1070) bra.uni $L__BB0_4;
GPGPU-Sim PTX:    immediate post dominator      @  PC=0x1da0 (sgemm.1.sm_52.ptx:1080) add.s32 %r878, %r897, -4752;
GPGPU-Sim PTX:  5 (potential) branch divergence @  PC=0x1d98 (sgemm.1.sm_52.ptx:1077) bra.uni $L__BB0_6;
GPGPU-Sim PTX:    immediate post dominator      @  PC=0x1dc0 (sgemm.1.sm_52.ptx:1086) setp.gt.s32 %p27, %r869, 2;
GPGPU-Sim PTX:  6 (potential) branch divergence @  PC=0x2080 (sgemm.1.sm_52.ptx:1174) @%p28 bra $L__BB0_3;
GPGPU-Sim PTX:    immediate post dominator      @  PC=0x2088 (sgemm.1.sm_52.ptx:1177) ld.param.u64 %rd306, [_ZN7cutlass6KernelINS_4gemm6kernel4GemmINS1_11threadblock12MmaPipelinedINS1_9GemmShapeILi128ELi128ELi8EEENS_9transform11threadblock22PredicatedTileIteratorINS_11MatrixShapeILi128ELi8EEEfNS_6layout8RowMajorELi1ENS8_30PitchLinearStripminedThreadMapINS_16PitchLinearShapeILi8ELi128EEELi256ELi1EEELi1EEENS9_19RegularTileIteratorISC_fNSD_11ColumnMajorELi1ENS8_33TransposePitchLinearThreadMapSimtISI_EELi4EEENSA_INSB_ILi8ELi128EEEfSE_Li0ENSF_INSG_ILi128ELi8EEELi256ELi1EEELi1EEENSK_ISP_fSE_Li0ESR_Li4EEEfSE_NS4_9MmaPolicyINS1_4warp7MmaSimtINS6_ILi32ELi64ELi8EEEfSL_fSE_fSE_NSV_13MmaSimtPolicyINSB_ILi4ELi8EEENSD_19RowMajorInterleavedILi2EEENS6_ILi4ELi4ELi1EEEEELi1ELNS_16ComplexTransformE0ELS14_0EbEENSB_ILi4ELi0EEENSB_ILi0ELi0EEELi1EEENS_21NumericArrayConverterIffLi4ELNS_15FloatRoundStyleE2EEES1B_bEENS_8epilogue11threadblock8EpilogueIS7_S15_Li1ENS1E_22PredicatedTileIteratorINS1E_26OutputTileOptimalThreadMapINS1E_15OutputTileShapeILi128ELi1ELi4ELi4ELi1EEENS1I_ILi1ELi
GPGPU-Sim PTX:  7 (potential) branch divergence @  PC=0x2098 (sgemm.1.sm_52.ptx:1179) @%p29 bra $L__BB0_9;
GPGPU-Sim PTX:    immediate post dominator      @  PC=0x20b8 (sgemm.1.sm_52.ptx:1186) ld.param.u64 %rd308, [_ZN7cutlass6KernelINS_4gemm6kernel4GemmINS1_11threadblock12MmaPipelinedINS1_9GemmShapeILi128ELi128ELi8EEENS_9transform11threadblock22PredicatedTileIteratorINS_11MatrixShapeILi128ELi8EEEfNS_6layout8RowMajorELi1ENS8_30PitchLinearStripminedThreadMapINS_16PitchLinearShapeILi8ELi128EEELi256ELi1EEELi1EEENS9_19RegularTileIteratorISC_fNSD_11ColumnMajorELi1ENS8_33TransposePitchLinearThreadMapSimtISI_EELi4EEENSA_INSB_ILi8ELi128EEEfSE_Li0ENSF_INSG_ILi128ELi8EEELi256ELi1EEELi1EEENSK_ISP_fSE_Li0ESR_Li4EEEfSE_NS4_9MmaPolicyINS1_4warp7MmaSimtINS6_ILi32ELi64ELi8EEEfSL_fSE_fSE_NSV_13MmaSimtPolicyINSB_ILi4ELi8EEENSD_19RowMajorInterleavedILi2EEENS6_ILi4ELi4ELi1EEEEELi1ELNS_16ComplexTransformE0ELS14_0EbEENSB_ILi4ELi0EEENSB_ILi0ELi0EEELi1EEENS_21NumericArrayConverterIffLi4ELNS_15FloatRoundStyleE2EEES1B_bEENS_8epilogue11threadblock8EpilogueIS7_S15_Li1ENS1E_22PredicatedTileIteratorINS1E_26OutputTileOptimalThreadMapINS1E_15OutputTileShapeILi128ELi1ELi4ELi4ELi1EEENS1I_ILi1ELi
GPGPU-Sim PTX:  8 (potential) branch divergence @  PC=0x20c8 (sgemm.1.sm_52.ptx:1188) @%p30 bra $L__BB0_11;
GPGPU-Sim PTX:    immediate post dominator      @  PC=0x20e8 (sgemm.1.sm_52.ptx:1195) mov.u32 %r868, %tid.x;
GPGPU-Sim PTX:  9 (potential) branch divergence @  PC=0x2840 (sgemm.1.sm_52.ptx:1430) @%p120 bra $L__BB0_13;
GPGPU-Sim PTX:    immediate post dominator      @  PC=0x5630 (sgemm.1.sm_52.ptx:4058) ret;
GPGPU-Sim PTX: 10 (potential) branch divergence @  PC=0x2848 (sgemm.1.sm_52.ptx:1431) bra.uni $L__BB0_12;
GPGPU-Sim PTX:    immediate post dominator      @  PC=0x3708 (sgemm.1.sm_52.ptx:2291) ld.param.u64 %rd320, [_ZN7cutlass6KernelINS_4gemm6kernel4GemmINS1_11threadblock12MmaPipelinedINS1_9GemmShapeILi128ELi128ELi8EEENS_9transform11threadblock22PredicatedTileIteratorINS_11MatrixShapeILi128ELi8EEEfNS_6layout8RowMajorELi1ENS8_30PitchLinearStripminedThreadMapINS_16PitchLinearShapeILi8ELi128EEELi256ELi1EEELi1EEENS9_19RegularTileIteratorISC_fNSD_11ColumnMajorELi1ENS8_33TransposePitchLinearThreadMapSimtISI_EELi4EEENSA_INSB_ILi8ELi128EEEfSE_Li0ENSF_INSG_ILi128ELi8EEELi256ELi1EEELi1EEENSK_ISP_fSE_Li0ESR_Li4EEEfSE_NS4_9MmaPolicyINS1_4warp7MmaSimtINS6_ILi32ELi64ELi8EEEfSL_fSE_fSE_NSV_13MmaSimtPolicyINSB_ILi4ELi8EEENSD_19RowMajorInterleavedILi2EEENS6_ILi4ELi4ELi1EEEEELi1ELNS_16ComplexTransformE0ELS14_0EbEENSB_ILi4ELi0EEENSB_ILi0ELi0EEELi1EEENS_21NumericArrayConverterIffLi4ELNS_15FloatRoundStyleE2EEES1B_bEENS_8epilogue11threadblock8EpilogueIS7_S15_Li1ENS1E_22PredicatedTileIteratorINS1E_26OutputTileOptimalThreadMapINS1E_15OutputTileShapeILi128ELi1ELi4ELi4ELi1EEENS1I_ILi1ELi
GPGPU-Sim PTX: 11 (potential) branch divergence @  PC=0x3700 (sgemm.1.sm_52.ptx:2288) bra.uni $L__BB0_14;
GPGPU-Sim PTX:    immediate post dominator      @  PC=0x5630 (sgemm.1.sm_52.ptx:4058) ret;
GPGPU-Sim PTX: ... end of reconvergence points for _ZN7cutlass6KernelINS_4gemm6kernel4GemmINS1_11threadblock12MmaPipelinedINS1_9GemmShapeILi128ELi128ELi8EEENS_9transform11threadblock22PredicatedTileIteratorINS_11MatrixShapeILi128ELi8EEEfNS_6layout8RowMajorELi1ENS8_30PitchLinearStripminedThreadMapINS_16PitchLinearShapeILi8ELi128EEELi256ELi1EEELi1EEENS9_19RegularTileIteratorISC_fNSD_11ColumnMajorELi1ENS8_33TransposePitchLinearThreadMapSimtISI_EELi4EEENSA_INSB_ILi8ELi128EEEfSE_Li0ENSF_INSG_ILi128ELi8EEELi256ELi1EEELi1EEENSK_ISP_fSE_Li0ESR_Li4EEEfSE_NS4_9MmaPolicyINS1_4warp7MmaSimtINS6_ILi32ELi64ELi8EEEfSL_fSE_fSE_NSV_13MmaSimtPolicyINSB_ILi4ELi8EEENSD_19RowMajorInterleavedILi2EEENS6_ILi4ELi4ELi1EEEEELi1ELNS_16ComplexTransformE0ELS14_0EbEENSB_ILi4ELi0EEENSB_ILi0ELi0EEELi1EEENS_21NumericArrayConverterIffLi4ELNS_15FloatRoundStyleE2EEES1B_bEENS_8epilogue11threadblock8EpilogueIS7_S15_Li1ENS1E_22PredicatedTileIteratorINS1E_26OutputTileOptimalThreadMapINS1E_15OutputTileShapeILi128ELi1ELi4ELi4ELi1EEENS1I_ILi1ELi4ELi2ELi1ELi8EEELi256ELi1ELi32EEEfLb0EEENS1D_4warp20FragmentIteratorSimtISX_NS1_6thread3MmaINS6_ILi8ELi8ELi1EEEfSL_fSE_fSE_NS_4arch13OpMultiplyAddEbEESE_S13_EENS1N_16TileIteratorSimtISX_S1U_fSE_S13_EENS1E_18SharedLoadIteratorINS1L_18CompactedThreadMapEfLi4EEENS1D_6thread17LinearCombinationIfLi1EffLNS21_9ScaleType4KindE0ELS1A_2EEENSB_ILi0ELi17EEELi1ELi1EEENS4_30GemmIdentityThreadblockSwizzleILi1EEELb0EEEEEvNT_6ParamsE
GPGPU-Sim PTX: ... done pre-decoding instructions for '_ZN7cutlass6KernelINS_4gemm6kernel4GemmINS1_11threadblock12MmaPipelinedINS1_9GemmShapeILi128ELi128ELi8EEENS_9transform11threadblock22PredicatedTileIteratorINS_11MatrixShapeILi128ELi8EEEfNS_6layout8RowMajorELi1ENS8_30PitchLinearStripminedThreadMapINS_16PitchLinearShapeILi8ELi128EEELi256ELi1EEELi1EEENS9_19RegularTileIteratorISC_fNSD_11ColumnMajorELi1ENS8_33TransposePitchLinearThreadMapSimtISI_EELi4EEENSA_INSB_ILi8ELi128EEEfSE_Li0ENSF_INSG_ILi128ELi8EEELi256ELi1EEELi1EEENSK_ISP_fSE_Li0ESR_Li4EEEfSE_NS4_9MmaPolicyINS1_4warp7MmaSimtINS6_ILi32ELi64ELi8EEEfSL_fSE_fSE_NSV_13MmaSimtPolicyINSB_ILi4ELi8EEENSD_19RowMajorInterleavedILi2EEENS6_ILi4ELi4ELi1EEEEELi1ELNS_16ComplexTransformE0ELS14_0EbEENSB_ILi4ELi0EEENSB_ILi0ELi0EEELi1EEENS_21NumericArrayConverterIffLi4ELNS_15FloatRoundStyleE2EEES1B_bEENS_8epilogue11threadblock8EpilogueIS7_S15_Li1ENS1E_22PredicatedTileIteratorINS1E_26OutputTileOptimalThreadMapINS1E_15OutputTileShapeILi128ELi1ELi4ELi4ELi1EEENS1I_ILi1ELi4ELi2ELi1ELi8EEELi256ELi1ELi32EEEfLb0EEENS1D_4warp20FragmentIteratorSimtISX_NS1_6thread3MmaINS6_ILi8ELi8ELi1EEEfSL_fSE_fSE_NS_4arch13OpMultiplyAddEbEESE_S13_EENS1N_16TileIteratorSimtISX_S1U_fSE_S13_EENS1E_18SharedLoadIteratorINS1L_18CompactedThreadMapEfLi4EEENS1D_6thread17LinearCombinationIfLi1EffLNS21_9ScaleType4KindE0ELS1A_2EEENSB_ILi0ELi17EEELi1ELi1EEENS4_30GemmIdentityThreadblockSwizzleILi1EEELb0EEEEEvNT_6ParamsE'.
GPGPU-Sim PTX: pushing kernel '_ZN7cutlass6KernelINS_4gemm6kernel4GemmINS1_11threadblock12MmaPipelinedINS1_9GemmShapeILi128ELi128ELi8EEENS_9transform11threadblock22PredicatedTileIteratorINS_11MatrixShapeILi128ELi8EEEfNS_6layout8RowMajorELi1ENS8_30PitchLinearStripminedThreadMapINS_16PitchLinearShapeILi8ELi128EEELi256ELi1EEELi1EEENS9_19RegularTileIteratorISC_fNSD_11ColumnMajorELi1ENS8_33TransposePitchLinearThreadMapSimtISI_EELi4EEENSA_INSB_ILi8ELi128EEEfSE_Li0ENSF_INSG_ILi128ELi8EEELi256ELi1EEELi1EEENSK_ISP_fSE_Li0ESR_Li4EEEfSE_NS4_9MmaPolicyINS1_4warp7MmaSimtINS6_ILi32ELi64ELi8EEEfSL_fSE_fSE_NSV_13MmaSimtPolicyINSB_ILi4ELi8EEENSD_19RowMajorInterleavedILi2EEENS6_ILi4ELi4ELi1EEEEELi1ELNS_16ComplexTransformE0ELS14_0EbEENSB_ILi4ELi0EEENSB_ILi0ELi0EEELi1EEENS_21NumericArrayConverterIffLi4ELNS_15FloatRoundStyleE2EEES1B_bEENS_8epilogue11threadblock8EpilogueIS7_S15_Li1ENS1E_22PredicatedTileIteratorINS1E_26OutputTileOptimalThreadMapINS1E_15OutputTileShapeILi128ELi1ELi4ELi4ELi1EEENS1I_ILi1ELi4ELi2ELi1ELi8EEELi256ELi1ELi32EEEfLb0EEENS1D_4warp20FragmentIteratorSimtISX_NS1_6thread3MmaINS6_ILi8ELi8ELi1EEEfSL_fSE_fSE_NS_4arch13OpMultiplyAddEbEESE_S13_EENS1N_16TileIteratorSimtISX_S1U_fSE_S13_EENS1E_18SharedLoadIteratorINS1L_18CompactedThreadMapEfLi4EEENS1D_6thread17LinearCombinationIfLi1EffLNS21_9ScaleType4KindE0ELS1A_2EEENSB_ILi0ELi17EEELi1ELi1EEENS4_30GemmIdentityThreadblockSwizzleILi1EEELb0EEEEEvNT_6ParamsE' to stream 0, gridDim= (32,32,1) blockDim = (256,1,1) 
GPGPU-Sim uArch: Shader 0 bind to kernel 1 '_ZN7cutlass6KernelINS_4gemm6kernel4GemmINS1_11threadblock12MmaPipelinedINS1_9GemmShapeILi128ELi128ELi8EEENS_9transform11threadblock22PredicatedTileIteratorINS_11MatrixShapeILi128ELi8EEEfNS_6layout8RowMajorELi1ENS8_30PitchLinearStripminedThreadMapINS_16PitchLinearShapeILi8ELi128EEELi256ELi1EEELi1EEENS9_19RegularTileIteratorISC_fNSD_11ColumnMajorELi1ENS8_33TransposePitchLinearThreadMapSimtISI_EELi4EEENSA_INSB_ILi8ELi128EEEfSE_Li0ENSF_INSG_ILi128ELi8EEELi256ELi1EEELi1EEENSK_ISP_fSE_Li0ESR_Li4EEEfSE_NS4_9MmaPolicyINS1_4warp7MmaSimtINS6_ILi32ELi64ELi8EEEfSL_fSE_fSE_NSV_13MmaSimtPolicyINSB_ILi4ELi8EEENSD_19RowMajorInterleavedILi2EEENS6_ILi4ELi4ELi1EEEEELi1ELNS_16ComplexTransformE0ELS14_0EbEENSB_ILi4ELi0EEENSB_ILi0ELi0EEELi1EEENS_21NumericArrayConverterIffLi4ELNS_15FloatRoundStyleE2EEES1B_bEENS_8epilogue11threadblock8EpilogueIS7_S15_Li1ENS1E_22PredicatedTileIteratorINS1E_26OutputTileOptimalThreadMapINS1E_15OutputTileShapeILi128ELi1ELi4ELi4ELi1EEENS1I_ILi1ELi4ELi2ELi1ELi8EEELi256ELi1ELi32EEEfLb0EEENS1D_4warp20FragmentIteratorSimtISX_NS1_6thread3MmaINS6_ILi8ELi8ELi1EEEfSL_fSE_fSE_NS_4arch13OpMultiplyAddEbEESE_S13_EENS1N_16TileIteratorSimtISX_S1U_fSE_S13_EENS1E_18SharedLoadIteratorINS1L_18CompactedThreadMapEfLi4EEENS1D_6thread17LinearCombinationIfLi1EffLNS21_9ScaleType4KindE0ELS1A_2EEENSB_ILi0ELi17EEELi1ELi1EEENS4_30GemmIdentityThreadblockSwizzleILi1EEELb0EEEEEvNT_6ParamsE'
GPGPU-Sim uArch: CTA/core = 1, limited by: regs
GPGPU-Sim: Reconfigure L1 cache to 128KB
GPGPU-Sim uArch: Shader 1 bind to kernel 1 '_ZN7cutlass6KernelINS_4gemm6kernel4GemmINS1_11threadblock12MmaPipelinedINS1_9GemmShapeILi128ELi128ELi8EEENS_9transform11threadblock22PredicatedTileIteratorINS_11MatrixShapeILi128ELi8EEEfNS_6layout8RowMajorELi1ENS8_30PitchLinearStripminedThreadMapINS_16PitchLinearShapeILi8ELi128EEELi256ELi1EEELi1EEENS9_19RegularTileIteratorISC_fNSD_11ColumnMajorELi1ENS8_33TransposePitchLinearThreadMapSimtISI_EELi4EEENSA_INSB_ILi8ELi128EEEfSE_Li0ENSF_INSG_ILi128ELi8EEELi256ELi1EEELi1EEENSK_ISP_fSE_Li0ESR_Li4EEEfSE_NS4_9MmaPolicyINS1_4warp7MmaSimtINS6_ILi32ELi64ELi8EEEfSL_fSE_fSE_NSV_13MmaSimtPolicyINSB_ILi4ELi8EEENSD_19RowMajorInterleavedILi2EEENS6_ILi4ELi4ELi1EEEEELi1ELNS_16ComplexTransformE0ELS14_0EbEENSB_ILi4ELi0EEENSB_ILi0ELi0EEELi1EEENS_21NumericArrayConverterIffLi4ELNS_15FloatRoundStyleE2EEES1B_bEENS_8epilogue11threadblock8EpilogueIS7_S15_Li1ENS1E_22PredicatedTileIteratorINS1E_26OutputTileOptimalThreadMapINS1E_15OutputTileShapeILi128ELi1ELi4ELi4ELi1EEENS1I_ILi1ELi4ELi2ELi1ELi8EEELi256ELi1ELi32EEEfLb0EEENS1D_4warp20FragmentIteratorSimtISX_NS1_6thread3MmaINS6_ILi8ELi8ELi1EEEfSL_fSE_fSE_NS_4arch13OpMultiplyAddEbEESE_S13_EENS1N_16TileIteratorSimtISX_S1U_fSE_S13_EENS1E_18SharedLoadIteratorINS1L_18CompactedThreadMapEfLi4EEENS1D_6thread17LinearCombinationIfLi1EffLNS21_9ScaleType4KindE0ELS1A_2EEENSB_ILi0ELi17EEELi1ELi1EEENS4_30GemmIdentityThreadblockSwizzleILi1EEELb0EEEEEvNT_6ParamsE'
GPGPU-Sim uArch: Shader 2 bind to kernel 1 '_ZN7cutlass6KernelINS_4gemm6kernel4GemmINS1_11threadblock12MmaPipelinedINS1_9GemmShapeILi128ELi128ELi8EEENS_9transform11threadblock22PredicatedTileIteratorINS_11MatrixShapeILi128ELi8EEEfNS_6layout8RowMajorELi1ENS8_30PitchLinearStripminedThreadMapINS_16PitchLinearShapeILi8ELi128EEELi256ELi1EEELi1EEENS9_19RegularTileIteratorISC_fNSD_11ColumnMajorELi1ENS8_33TransposePitchLinearThreadMapSimtISI_EELi4EEENSA_INSB_ILi8ELi128EEEfSE_Li0ENSF_INSG_ILi128ELi8EEELi256ELi1EEELi1EEENSK_ISP_fSE_Li0ESR_Li4EEEfSE_NS4_9MmaPolicyINS1_4warp7MmaSimtINS6_ILi32ELi64ELi8EEEfSL_fSE_fSE_NSV_13MmaSimtPolicyINSB_ILi4ELi8EEENSD_19RowMajorInterleavedILi2EEENS6_ILi4ELi4ELi1EEEEELi1ELNS_16ComplexTransformE0ELS14_0EbEENSB_ILi4ELi0EEENSB_ILi0ELi0EEELi1EEENS_21NumericArrayConverterIffLi4ELNS_15FloatRoundStyleE2EEES1B_bEENS_8epilogue11threadblock8EpilogueIS7_S15_Li1ENS1E_22PredicatedTileIteratorINS1E_26OutputTileOptimalThreadMapINS1E_15OutputTileShapeILi128ELi1ELi4ELi4ELi1EEENS1I_ILi1ELi4ELi2ELi1ELi8EEELi256ELi1ELi32EEEfLb0EEENS1D_4warp20FragmentIteratorSimtISX_NS1_6thread3MmaINS6_ILi8ELi8ELi1EEEfSL_fSE_fSE_NS_4arch13OpMultiplyAddEbEESE_S13_EENS1N_16TileIteratorSimtISX_S1U_fSE_S13_EENS1E_18SharedLoadIteratorINS1L_18CompactedThreadMapEfLi4EEENS1D_6thread17LinearCombinationIfLi1EffLNS21_9ScaleType4KindE0ELS1A_2EEENSB_ILi0ELi17EEELi1ELi1EEENS4_30GemmIdentityThreadblockSwizzleILi1EEELb0EEEEEvNT_6ParamsE'
GPGPU-Sim uArch: Shader 3 bind to kernel 1 '_ZN7cutlass6KernelINS_4gemm6kernel4GemmINS1_11threadblock12MmaPipelinedINS1_9GemmShapeILi128ELi128ELi8EEENS_9transform11threadblock22PredicatedTileIteratorINS_11MatrixShapeILi128ELi8EEEfNS_6layout8RowMajorELi1ENS8_30PitchLinearStripminedThreadMapINS_16PitchLinearShapeILi8ELi128EEELi256ELi1EEELi1EEENS9_19RegularTileIteratorISC_fNSD_11ColumnMajorELi1ENS8_33TransposePitchLinearThreadMapSimtISI_EELi4EEENSA_INSB_ILi8ELi128EEEfSE_Li0ENSF_INSG_ILi128ELi8EEELi256ELi1EEELi1EEENSK_ISP_fSE_Li0ESR_Li4EEEfSE_NS4_9MmaPolicyINS1_4warp7MmaSimtINS6_ILi32ELi64ELi8EEEfSL_fSE_fSE_NSV_13MmaSimtPolicyINSB_ILi4ELi8EEENSD_19RowMajorInterleavedILi2EEENS6_ILi4ELi4ELi1EEEEELi1ELNS_16ComplexTransformE0ELS14_0EbEENSB_ILi4ELi0EEENSB_ILi0ELi0EEELi1EEENS_21NumericArrayConverterIffLi4ELNS_15FloatRoundStyleE2EEES1B_bEENS_8epilogue11threadblock8EpilogueIS7_S15_Li1ENS1E_22PredicatedTileIteratorINS1E_26OutputTileOptimalThreadMapINS1E_15OutputTileShapeILi128ELi1ELi4ELi4ELi1EEENS1I_ILi1ELi4ELi2ELi1ELi8EEELi256ELi1ELi32EEEfLb0EEENS1D_4warp20FragmentIteratorSimtISX_NS1_6thread3MmaINS6_ILi8ELi8ELi1EEEfSL_fSE_fSE_NS_4arch13OpMultiplyAddEbEESE_S13_EENS1N_16TileIteratorSimtISX_S1U_fSE_S13_EENS1E_18SharedLoadIteratorINS1L_18CompactedThreadMapEfLi4EEENS1D_6thread17LinearCombinationIfLi1EffLNS21_9ScaleType4KindE0ELS1A_2EEENSB_ILi0ELi17EEELi1ELi1EEENS4_30GemmIdentityThreadblockSwizzleILi1EEELb0EEEEEvNT_6ParamsE'
GPGPU-Sim uArch: Shader 4 bind to kernel 1 '_ZN7cutlass6KernelINS_4gemm6kernel4GemmINS1_11threadblock12MmaPipelinedINS1_9GemmShapeILi128ELi128ELi8EEENS_9transform11threadblock22PredicatedTileIteratorINS_11MatrixShapeILi128ELi8EEEfNS_6layout8RowMajorELi1ENS8_30PitchLinearStripminedThreadMapINS_16PitchLinearShapeILi8ELi128EEELi256ELi1EEELi1EEENS9_19RegularTileIteratorISC_fNSD_11ColumnMajorELi1ENS8_33TransposePitchLinearThreadMapSimtISI_EELi4EEENSA_INSB_ILi8ELi128EEEfSE_Li0ENSF_INSG_ILi128ELi8EEELi256ELi1EEELi1EEENSK_ISP_fSE_Li0ESR_Li4EEEfSE_NS4_9MmaPolicyINS1_4warp7MmaSimtINS6_ILi32ELi64ELi8EEEfSL_fSE_fSE_NSV_13MmaSimtPolicyINSB_ILi4ELi8EEENSD_19RowMajorInterleavedILi2EEENS6_ILi4ELi4ELi1EEEEELi1ELNS_16ComplexTransformE0ELS14_0EbEENSB_ILi4ELi0EEENSB_ILi0ELi0EEELi1EEENS_21NumericArrayConverterIffLi4ELNS_15FloatRoundStyleE2EEES1B_bEENS_8epilogue11threadblock8EpilogueIS7_S15_Li1ENS1E_22PredicatedTileIteratorINS1E_26OutputTileOptimalThreadMapINS1E_15OutputTileShapeILi128ELi1ELi4ELi4ELi1EEENS1I_ILi1ELi4ELi2ELi1ELi8EEELi256ELi1ELi32EEEfLb0EEENS1D_4warp20FragmentIteratorSimtISX_NS1_6thread3MmaINS6_ILi8ELi8ELi1EEEfSL_fSE_fSE_NS_4arch13OpMultiplyAddEbEESE_S13_EENS1N_16TileIteratorSimtISX_S1U_fSE_S13_EENS1E_18SharedLoadIteratorINS1L_18CompactedThreadMapEfLi4EEENS1D_6thread17LinearCombinationIfLi1EffLNS21_9ScaleType4KindE0ELS1A_2EEENSB_ILi0ELi17EEELi1ELi1EEENS4_30GemmIdentityThreadblockSwizzleILi1EEELb0EEEEEvNT_6ParamsE'
GPGPU-Sim uArch: Shader 5 bind to kernel 1 '_ZN7cutlass6KernelINS_4gemm6kernel4GemmINS1_11threadblock12MmaPipelinedINS1_9GemmShapeILi128ELi128ELi8EEENS_9transform11threadblock22PredicatedTileIteratorINS_11MatrixShapeILi128ELi8EEEfNS_6layout8RowMajorELi1ENS8_30PitchLinearStripminedThreadMapINS_16PitchLinearShapeILi8ELi128EEELi256ELi1EEELi1EEENS9_19RegularTileIteratorISC_fNSD_11ColumnMajorELi1ENS8_33TransposePitchLinearThreadMapSimtISI_EELi4EEENSA_INSB_ILi8ELi128EEEfSE_Li0ENSF_INSG_ILi128ELi8EEELi256ELi1EEELi1EEENSK_ISP_fSE_Li0ESR_Li4EEEfSE_NS4_9MmaPolicyINS1_4warp7MmaSimtINS6_ILi32ELi64ELi8EEEfSL_fSE_fSE_NSV_13MmaSimtPolicyINSB_ILi4ELi8EEENSD_19RowMajorInterleavedILi2EEENS6_ILi4ELi4ELi1EEEEELi1ELNS_16ComplexTransformE0ELS14_0EbEENSB_ILi4ELi0EEENSB_ILi0ELi0EEELi1EEENS_21NumericArrayConverterIffLi4ELNS_15FloatRoundStyleE2EEES1B_bEENS_8epilogue11threadblock8EpilogueIS7_S15_Li1ENS1E_22PredicatedTileIteratorINS1E_26OutputTileOptimalThreadMapINS1E_15OutputTileShapeILi128ELi1ELi4ELi4ELi1EEENS1I_ILi1ELi4ELi2ELi1ELi8EEELi256ELi1ELi32EEEfLb0EEENS1D_4warp20FragmentIteratorSimtISX_NS1_6thread3MmaINS6_ILi8ELi8ELi1EEEfSL_fSE_fSE_NS_4arch13OpMultiplyAddEbEESE_S13_EENS1N_16TileIteratorSimtISX_S1U_fSE_S13_EENS1E_18SharedLoadIteratorINS1L_18CompactedThreadMapEfLi4EEENS1D_6thread17LinearCombinationIfLi1EffLNS21_9ScaleType4KindE0ELS1A_2EEENSB_ILi0ELi17EEELi1ELi1EEENS4_30GemmIdentityThreadblockSwizzleILi1EEELb0EEEEEvNT_6ParamsE'
GPGPU-Sim uArch: Shader 6 bind to kernel 1 '_ZN7cutlass6KernelINS_4gemm6kernel4GemmINS1_11threadblock12MmaPipelinedINS1_9GemmShapeILi128ELi128ELi8EEENS_9transform11threadblock22PredicatedTileIteratorINS_11MatrixShapeILi128ELi8EEEfNS_6layout8RowMajorELi1ENS8_30PitchLinearStripminedThreadMapINS_16PitchLinearShapeILi8ELi128EEELi256ELi1EEELi1EEENS9_19RegularTileIteratorISC_fNSD_11ColumnMajorELi1ENS8_33TransposePitchLinearThreadMapSimtISI_EELi4EEENSA_INSB_ILi8ELi128EEEfSE_Li0ENSF_INSG_ILi128ELi8EEELi256ELi1EEELi1EEENSK_ISP_fSE_Li0ESR_Li4EEEfSE_NS4_9MmaPolicyINS1_4warp7MmaSimtINS6_ILi32ELi64ELi8EEEfSL_fSE_fSE_NSV_13MmaSimtPolicyINSB_ILi4ELi8EEENSD_19RowMajorInterleavedILi2EEENS6_ILi4ELi4ELi1EEEEELi1ELNS_16ComplexTransformE0ELS14_0EbEENSB_ILi4ELi0EEENSB_ILi0ELi0EEELi1EEENS_21NumericArrayConverterIffLi4ELNS_15FloatRoundStyleE2EEES1B_bEENS_8epilogue11threadblock8EpilogueIS7_S15_Li1ENS1E_22PredicatedTileIteratorINS1E_26OutputTileOptimalThreadMapINS1E_15OutputTileShapeILi128ELi1ELi4ELi4ELi1EEENS1I_ILi1ELi4ELi2ELi1ELi8EEELi256ELi1ELi32EEEfLb0EEENS1D_4warp20FragmentIteratorSimtISX_NS1_6thread3MmaINS6_ILi8ELi8ELi1EEEfSL_fSE_fSE_NS_4arch13OpMultiplyAddEbEESE_S13_EENS1N_16TileIteratorSimtISX_S1U_fSE_S13_EENS1E_18SharedLoadIteratorINS1L_18CompactedThreadMapEfLi4EEENS1D_6thread17LinearCombinationIfLi1EffLNS21_9ScaleType4KindE0ELS1A_2EEENSB_ILi0ELi17EEELi1ELi1EEENS4_30GemmIdentityThreadblockSwizzleILi1EEELb0EEEEEvNT_6ParamsE'
GPGPU-Sim uArch: Shader 7 bind to kernel 1 '_ZN7cutlass6KernelINS_4gemm6kernel4GemmINS1_11threadblock12MmaPipelinedINS1_9GemmShapeILi128ELi128ELi8EEENS_9transform11threadblock22PredicatedTileIteratorINS_11MatrixShapeILi128ELi8EEEfNS_6layout8RowMajorELi1ENS8_30PitchLinearStripminedThreadMapINS_16PitchLinearShapeILi8ELi128EEELi256ELi1EEELi1EEENS9_19RegularTileIteratorISC_fNSD_11ColumnMajorELi1ENS8_33TransposePitchLinearThreadMapSimtISI_EELi4EEENSA_INSB_ILi8ELi128EEEfSE_Li0ENSF_INSG_ILi128ELi8EEELi256ELi1EEELi1EEENSK_ISP_fSE_Li0ESR_Li4EEEfSE_NS4_9MmaPolicyINS1_4warp7MmaSimtINS6_ILi32ELi64ELi8EEEfSL_fSE_fSE_NSV_13MmaSimtPolicyINSB_ILi4ELi8EEENSD_19RowMajorInterleavedILi2EEENS6_ILi4ELi4ELi1EEEEELi1ELNS_16ComplexTransformE0ELS14_0EbEENSB_ILi4ELi0EEENSB_ILi0ELi0EEELi1EEENS_21NumericArrayConverterIffLi4ELNS_15FloatRoundStyleE2EEES1B_bEENS_8epilogue11threadblock8EpilogueIS7_S15_Li1ENS1E_22PredicatedTileIteratorINS1E_26OutputTileOptimalThreadMapINS1E_15OutputTileShapeILi128ELi1ELi4ELi4ELi1EEENS1I_ILi1ELi4ELi2ELi1ELi8EEELi256ELi1ELi32EEEfLb0EEENS1D_4warp20FragmentIteratorSimtISX_NS1_6thread3MmaINS6_ILi8ELi8ELi1EEEfSL_fSE_fSE_NS_4arch13OpMultiplyAddEbEESE_S13_EENS1N_16TileIteratorSimtISX_S1U_fSE_S13_EENS1E_18SharedLoadIteratorINS1L_18CompactedThreadMapEfLi4EEENS1D_6thread17LinearCombinationIfLi1EffLNS21_9ScaleType4KindE0ELS1A_2EEENSB_ILi0ELi17EEELi1ELi1EEENS4_30GemmIdentityThreadblockSwizzleILi1EEELb0EEEEEvNT_6ParamsE'
GPGPU-Sim uArch: Shader 8 bind to kernel 1 '_ZN7cutlass6KernelINS_4gemm6kernel4GemmINS1_11threadblock12MmaPipelinedINS1_9GemmShapeILi128ELi128ELi8EEENS_9transform11threadblock22PredicatedTileIteratorINS_11MatrixShapeILi128ELi8EEEfNS_6layout8RowMajorELi1ENS8_30PitchLinearStripminedThreadMapINS_16PitchLinearShapeILi8ELi128EEELi256ELi1EEELi1EEENS9_19RegularTileIteratorISC_fNSD_11ColumnMajorELi1ENS8_33TransposePitchLinearThreadMapSimtISI_EELi4EEENSA_INSB_ILi8ELi128EEEfSE_Li0ENSF_INSG_ILi128ELi8EEELi256ELi1EEELi1EEENSK_ISP_fSE_Li0ESR_Li4EEEfSE_NS4_9MmaPolicyINS1_4warp7MmaSimtINS6_ILi32ELi64ELi8EEEfSL_fSE_fSE_NSV_13MmaSimtPolicyINSB_ILi4ELi8EEENSD_19RowMajorInterleavedILi2EEENS6_ILi4ELi4ELi1EEEEELi1ELNS_16ComplexTransformE0ELS14_0EbEENSB_ILi4ELi0EEENSB_ILi0ELi0EEELi1EEENS_21NumericArrayConverterIffLi4ELNS_15FloatRoundStyleE2EEES1B_bEENS_8epilogue11threadblock8EpilogueIS7_S15_Li1ENS1E_22PredicatedTileIteratorINS1E_26OutputTileOptimalThreadMapINS1E_15OutputTileShapeILi128ELi1ELi4ELi4ELi1EEENS1I_ILi1ELi4ELi2ELi1ELi8EEELi256ELi1ELi32EEEfLb0EEENS1D_4warp20FragmentIteratorSimtISX_NS1_6thread3MmaINS6_ILi8ELi8ELi1EEEfSL_fSE_fSE_NS_4arch13OpMultiplyAddEbEESE_S13_EENS1N_16TileIteratorSimtISX_S1U_fSE_S13_EENS1E_18SharedLoadIteratorINS1L_18CompactedThreadMapEfLi4EEENS1D_6thread17LinearCombinationIfLi1EffLNS21_9ScaleType4KindE0ELS1A_2EEENSB_ILi0ELi17EEELi1ELi1EEENS4_30GemmIdentityThreadblockSwizzleILi1EEELb0EEEEEvNT_6ParamsE'
GPGPU-Sim uArch: Shader 9 bind to kernel 1 '_ZN7cutlass6KernelINS_4gemm6kernel4GemmINS1_11threadblock12MmaPipelinedINS1_9GemmShapeILi128ELi128ELi8EEENS_9transform11threadblock22PredicatedTileIteratorINS_11MatrixShapeILi128ELi8EEEfNS_6layout8RowMajorELi1ENS8_30PitchLinearStripminedThreadMapINS_16PitchLinearShapeILi8ELi128EEELi256ELi1EEELi1EEENS9_19RegularTileIteratorISC_fNSD_11ColumnMajorELi1ENS8_33TransposePitchLinearThreadMapSimtISI_EELi4EEENSA_INSB_ILi8ELi128EEEfSE_Li0ENSF_INSG_ILi128ELi8EEELi256ELi1EEELi1EEENSK_ISP_fSE_Li0ESR_Li4EEEfSE_NS4_9MmaPolicyINS1_4warp7MmaSimtINS6_ILi32ELi64ELi8EEEfSL_fSE_fSE_NSV_13MmaSimtPolicyINSB_ILi4ELi8EEENSD_19RowMajorInterleavedILi2EEENS6_ILi4ELi4ELi1EEEEELi1ELNS_16ComplexTransformE0ELS14_0EbEENSB_ILi4ELi0EEENSB_ILi0ELi0EEELi1EEENS_21NumericArrayConverterIffLi4ELNS_15FloatRoundStyleE2EEES1B_bEENS_8epilogue11threadblock8EpilogueIS7_S15_Li1ENS1E_22PredicatedTileIteratorINS1E_26OutputTileOptimalThreadMapINS1E_15OutputTileShapeILi128ELi1ELi4ELi4ELi1EEENS1I_ILi1ELi4ELi2ELi1ELi8EEELi256ELi1ELi32EEEfLb0EEENS1D_4warp20FragmentIteratorSimtISX_NS1_6thread3MmaINS6_ILi8ELi8ELi1EEEfSL_fSE_fSE_NS_4arch13OpMultiplyAddEbEESE_S13_EENS1N_16TileIteratorSimtISX_S1U_fSE_S13_EENS1E_18SharedLoadIteratorINS1L_18CompactedThreadMapEfLi4EEENS1D_6thread17LinearCombinationIfLi1EffLNS21_9ScaleType4KindE0ELS1A_2EEENSB_ILi0ELi17EEELi1ELi1EEENS4_30GemmIdentityThreadblockSwizzleILi1EEELb0EEEEEvNT_6ParamsE'
GPGPU-Sim uArch: Shader 10 bind to kernel 1 '_ZN7cutlass6KernelINS_4gemm6kernel4GemmINS1_11threadblock12MmaPipelinedINS1_9GemmShapeILi128ELi128ELi8EEENS_9transform11threadblock22PredicatedTileIteratorINS_11MatrixShapeILi128ELi8EEEfNS_6layout8RowMajorELi1ENS8_30PitchLinearStripminedThreadMapINS_16PitchLinearShapeILi8ELi128EEELi256ELi1EEELi1EEENS9_19RegularTileIteratorISC_fNSD_11ColumnMajorELi1ENS8_33TransposePitchLinearThreadMapSimtISI_EELi4EEENSA_INSB_ILi8ELi128EEEfSE_Li0ENSF_INSG_ILi128ELi8EEELi256ELi1EEELi1EEENSK_ISP_fSE_Li0ESR_Li4EEEfSE_NS4_9MmaPolicyINS1_4warp7MmaSimtINS6_ILi32ELi64ELi8EEEfSL_fSE_fSE_NSV_13MmaSimtPolicyINSB_ILi4ELi8EEENSD_19RowMajorInterleavedILi2EEENS6_ILi4ELi4ELi1EEEEELi1ELNS_16ComplexTransformE0ELS14_0EbEENSB_ILi4ELi0EEENSB_ILi0ELi0EEELi1EEENS_21NumericArrayConverterIffLi4ELNS_15FloatRoundStyleE2EEES1B_bEENS_8epilogue11threadblock8EpilogueIS7_S15_Li1ENS1E_22PredicatedTileIteratorINS1E_26OutputTileOptimalThreadMapINS1E_15OutputTileShapeILi128ELi1ELi4ELi4ELi1EEENS1I_ILi1ELi4ELi2ELi1ELi8EEELi256ELi1ELi32EEEfLb0EEENS1D_4warp20FragmentIteratorSimtISX_NS1_6thread3MmaINS6_ILi8ELi8ELi1EEEfSL_fSE_fSE_NS_4arch13OpMultiplyAddEbEESE_S13_EENS1N_16TileIteratorSimtISX_S1U_fSE_S13_EENS1E_18SharedLoadIteratorINS1L_18CompactedThreadMapEfLi4EEENS1D_6thread17LinearCombinationIfLi1EffLNS21_9ScaleType4KindE0ELS1A_2EEENSB_ILi0ELi17EEELi1ELi1EEENS4_30GemmIdentityThreadblockSwizzleILi1EEELb0EEEEEvNT_6ParamsE'
GPGPU-Sim uArch: Shader 11 bind to kernel 1 '_ZN7cutlass6KernelINS_4gemm6kernel4GemmINS1_11threadblock12MmaPipelinedINS1_9GemmShapeILi128ELi128ELi8EEENS_9transform11threadblock22PredicatedTileIteratorINS_11MatrixShapeILi128ELi8EEEfNS_6layout8RowMajorELi1ENS8_30PitchLinearStripminedThreadMapINS_16PitchLinearShapeILi8ELi128EEELi256ELi1EEELi1EEENS9_19RegularTileIteratorISC_fNSD_11ColumnMajorELi1ENS8_33TransposePitchLinearThreadMapSimtISI_EELi4EEENSA_INSB_ILi8ELi128EEEfSE_Li0ENSF_INSG_ILi128ELi8EEELi256ELi1EEELi1EEENSK_ISP_fSE_Li0ESR_Li4EEEfSE_NS4_9MmaPolicyINS1_4warp7MmaSimtINS6_ILi32ELi64ELi8EEEfSL_fSE_fSE_NSV_13MmaSimtPolicyINSB_ILi4ELi8EEENSD_19RowMajorInterleavedILi2EEENS6_ILi4ELi4ELi1EEEEELi1ELNS_16ComplexTransformE0ELS14_0EbEENSB_ILi4ELi0EEENSB_ILi0ELi0EEELi1EEENS_21NumericArrayConverterIffLi4ELNS_15FloatRoundStyleE2EEES1B_bEENS_8epilogue11threadblock8EpilogueIS7_S15_Li1ENS1E_22PredicatedTileIteratorINS1E_26OutputTileOptimalThreadMapINS1E_15OutputTileShapeILi128ELi1ELi4ELi4ELi1EEENS1I_ILi1ELi4ELi2ELi1ELi8EEELi256ELi1ELi32EEEfLb0EEENS1D_4warp20FragmentIteratorSimtISX_NS1_6thread3MmaINS6_ILi8ELi8ELi1EEEfSL_fSE_fSE_NS_4arch13OpMultiplyAddEbEESE_S13_EENS1N_16TileIteratorSimtISX_S1U_fSE_S13_EENS1E_18SharedLoadIteratorINS1L_18CompactedThreadMapEfLi4EEENS1D_6thread17LinearCombinationIfLi1EffLNS21_9ScaleType4KindE0ELS1A_2EEENSB_ILi0ELi17EEELi1ELi1EEENS4_30GemmIdentityThreadblockSwizzleILi1EEELb0EEEEEvNT_6ParamsE'
GPGPU-Sim uArch: Shader 12 bind to kernel 1 '_ZN7cutlass6KernelINS_4gemm6kernel4GemmINS1_11threadblock12MmaPipelinedINS1_9GemmShapeILi128ELi128ELi8EEENS_9transform11threadblock22PredicatedTileIteratorINS_11MatrixShapeILi128ELi8EEEfNS_6layout8RowMajorELi1ENS8_30PitchLinearStripminedThreadMapINS_16PitchLinearShapeILi8ELi128EEELi256ELi1EEELi1EEENS9_19RegularTileIteratorISC_fNSD_11ColumnMajorELi1ENS8_33TransposePitchLinearThreadMapSimtISI_EELi4EEENSA_INSB_ILi8ELi128EEEfSE_Li0ENSF_INSG_ILi128ELi8EEELi256ELi1EEELi1EEENSK_ISP_fSE_Li0ESR_Li4EEEfSE_NS4_9MmaPolicyINS1_4warp7MmaSimtINS6_ILi32ELi64ELi8EEEfSL_fSE_fSE_NSV_13MmaSimtPolicyINSB_ILi4ELi8EEENSD_19RowMajorInterleavedILi2EEENS6_ILi4ELi4ELi1EEEEELi1ELNS_16ComplexTransformE0ELS14_0EbEENSB_ILi4ELi0EEENSB_ILi0ELi0EEELi1EEENS_21NumericArrayConverterIffLi4ELNS_15FloatRoundStyleE2EEES1B_bEENS_8epilogue11threadblock8EpilogueIS7_S15_Li1ENS1E_22PredicatedTileIteratorINS1E_26OutputTileOptimalThreadMapINS1E_15OutputTileShapeILi128ELi1ELi4ELi4ELi1EEENS1I_ILi1ELi4ELi2ELi1ELi8EEELi256ELi1ELi32EEEfLb0EEENS1D_4warp20FragmentIteratorSimtISX_NS1_6thread3MmaINS6_ILi8ELi8ELi1EEEfSL_fSE_fSE_NS_4arch13OpMultiplyAddEbEESE_S13_EENS1N_16TileIteratorSimtISX_S1U_fSE_S13_EENS1E_18SharedLoadIteratorINS1L_18CompactedThreadMapEfLi4EEENS1D_6thread17LinearCombinationIfLi1EffLNS21_9ScaleType4KindE0ELS1A_2EEENSB_ILi0ELi17EEELi1ELi1EEENS4_30GemmIdentityThreadblockSwizzleILi1EEELb0EEEEEvNT_6ParamsE'
GPGPU-Sim uArch: Shader 13 bind to kernel 1 '_ZN7cutlass6KernelINS_4gemm6kernel4GemmINS1_11threadblock12MmaPipelinedINS1_9GemmShapeILi128ELi128ELi8EEENS_9transform11threadblock22PredicatedTileIteratorINS_11MatrixShapeILi128ELi8EEEfNS_6layout8RowMajorELi1ENS8_30PitchLinearStripminedThreadMapINS_16PitchLinearShapeILi8ELi128EEELi256ELi1EEELi1EEENS9_19RegularTileIteratorISC_fNSD_11ColumnMajorELi1ENS8_33TransposePitchLinearThreadMapSimtISI_EELi4EEENSA_INSB_ILi8ELi128EEEfSE_Li0ENSF_INSG_ILi128ELi8EEELi256ELi1EEELi1EEENSK_ISP_fSE_Li0ESR_Li4EEEfSE_NS4_9MmaPolicyINS1_4warp7MmaSimtINS6_ILi32ELi64ELi8EEEfSL_fSE_fSE_NSV_13MmaSimtPolicyINSB_ILi4ELi8EEENSD_19RowMajorInterleavedILi2EEENS6_ILi4ELi4ELi1EEEEELi1ELNS_16ComplexTransformE0ELS14_0EbEENSB_ILi4ELi0EEENSB_ILi0ELi0EEELi1EEENS_21NumericArrayConverterIffLi4ELNS_15FloatRoundStyleE2EEES1B_bEENS_8epilogue11threadblock8EpilogueIS7_S15_Li1ENS1E_22PredicatedTileIteratorINS1E_26OutputTileOptimalThreadMapINS1E_15OutputTileShapeILi128ELi1ELi4ELi4ELi1EEENS1I_ILi1ELi4ELi2ELi1ELi8EEELi256ELi1ELi32EEEfLb0EEENS1D_4warp20FragmentIteratorSimtISX_NS1_6thread3MmaINS6_ILi8ELi8ELi1EEEfSL_fSE_fSE_NS_4arch13OpMultiplyAddEbEESE_S13_EENS1N_16TileIteratorSimtISX_S1U_fSE_S13_EENS1E_18SharedLoadIteratorINS1L_18CompactedThreadMapEfLi4EEENS1D_6thread17LinearCombinationIfLi1EffLNS21_9ScaleType4KindE0ELS1A_2EEENSB_ILi0ELi17EEELi1ELi1EEENS4_30GemmIdentityThreadblockSwizzleILi1EEELb0EEEEEvNT_6ParamsE'
GPGPU-Sim uArch: Shader 14 bind to kernel 1 '_ZN7cutlass6KernelINS_4gemm6kernel4GemmINS1_11threadblock12MmaPipelinedINS1_9GemmShapeILi128ELi128ELi8EEENS_9transform11threadblock22PredicatedTileIteratorINS_11MatrixShapeILi128ELi8EEEfNS_6layout8RowMajorELi1ENS8_30PitchLinearStripminedThreadMapINS_16PitchLinearShapeILi8ELi128EEELi256ELi1EEELi1EEENS9_19RegularTileIteratorISC_fNSD_11ColumnMajorELi1ENS8_33TransposePitchLinearThreadMapSimtISI_EELi4EEENSA_INSB_ILi8ELi128EEEfSE_Li0ENSF_INSG_ILi128ELi8EEELi256ELi1EEELi1EEENSK_ISP_fSE_Li0ESR_Li4EEEfSE_NS4_9MmaPolicyINS1_4warp7MmaSimtINS6_ILi32ELi64ELi8EEEfSL_fSE_fSE_NSV_13MmaSimtPolicyINSB_ILi4ELi8EEENSD_19RowMajorInterleavedILi2EEENS6_ILi4ELi4ELi1EEEEELi1ELNS_16ComplexTransformE0ELS14_0EbEENSB_ILi4ELi0EEENSB_ILi0ELi0EEELi1EEENS_21NumericArrayConverterIffLi4ELNS_15FloatRoundStyleE2EEES1B_bEENS_8epilogue11threadblock8EpilogueIS7_S15_Li1ENS1E_22PredicatedTileIteratorINS1E_26OutputTileOptimalThreadMapINS1E_15OutputTileShapeILi128ELi1ELi4ELi4ELi1EEENS1I_ILi1ELi4ELi2ELi1ELi8EEELi256ELi1ELi32EEEfLb0EEENS1D_4warp20FragmentIteratorSimtISX_NS1_6thread3MmaINS6_ILi8ELi8ELi1EEEfSL_fSE_fSE_NS_4arch13OpMultiplyAddEbEESE_S13_EENS1N_16TileIteratorSimtISX_S1U_fSE_S13_EENS1E_18SharedLoadIteratorINS1L_18CompactedThreadMapEfLi4EEENS1D_6thread17LinearCombinationIfLi1EffLNS21_9ScaleType4KindE0ELS1A_2EEENSB_ILi0ELi17EEELi1ELi1EEENS4_30GemmIdentityThreadblockSwizzleILi1EEELb0EEEEEvNT_6ParamsE'
GPGPU-Sim uArch: Shader 15 bind to kernel 1 '_ZN7cutlass6KernelINS_4gemm6kernel4GemmINS1_11threadblock12MmaPipelinedINS1_9GemmShapeILi128ELi128ELi8EEENS_9transform11threadblock22PredicatedTileIteratorINS_11MatrixShapeILi128ELi8EEEfNS_6layout8RowMajorELi1ENS8_30PitchLinearStripminedThreadMapINS_16PitchLinearShapeILi8ELi128EEELi256ELi1EEELi1EEENS9_19RegularTileIteratorISC_fNSD_11ColumnMajorELi1ENS8_33TransposePitchLinearThreadMapSimtISI_EELi4EEENSA_INSB_ILi8ELi128EEEfSE_Li0ENSF_INSG_ILi128ELi8EEELi256ELi1EEELi1EEENSK_ISP_fSE_Li0ESR_Li4EEEfSE_NS4_9MmaPolicyINS1_4warp7MmaSimtINS6_ILi32ELi64ELi8EEEfSL_fSE_fSE_NSV_13MmaSimtPolicyINSB_ILi4ELi8EEENSD_19RowMajorInterleavedILi2EEENS6_ILi4ELi4ELi1EEEEELi1ELNS_16ComplexTransformE0ELS14_0EbEENSB_ILi4ELi0EEENSB_ILi0ELi0EEELi1EEENS_21NumericArrayConverterIffLi4ELNS_15FloatRoundStyleE2EEES1B_bEENS_8epilogue11threadblock8EpilogueIS7_S15_Li1ENS1E_22PredicatedTileIteratorINS1E_26OutputTileOptimalThreadMapINS1E_15OutputTileShapeILi128ELi1ELi4ELi4ELi1EEENS1I_ILi1ELi4ELi2ELi1ELi8EEELi256ELi1ELi32EEEfLb0EEENS1D_4warp20FragmentIteratorSimtISX_NS1_6thread3MmaINS6_ILi8ELi8ELi1EEEfSL_fSE_fSE_NS_4arch13OpMultiplyAddEbEESE_S13_EENS1N_16TileIteratorSimtISX_S1U_fSE_S13_EENS1E_18SharedLoadIteratorINS1L_18CompactedThreadMapEfLi4EEENS1D_6thread17LinearCombinationIfLi1EffLNS21_9ScaleType4KindE0ELS1A_2EEENSB_ILi0ELi17EEELi1ELi1EEENS4_30GemmIdentityThreadblockSwizzleILi1EEELb0EEEEEvNT_6ParamsE'
GPGPU-Sim uArch: Shader 16 bind to kernel 1 '_ZN7cutlass6KernelINS_4gemm6kernel4GemmINS1_11threadblock12MmaPipelinedINS1_9GemmShapeILi128ELi128ELi8EEENS_9transform11threadblock22PredicatedTileIteratorINS_11MatrixShapeILi128ELi8EEEfNS_6layout8RowMajorELi1ENS8_30PitchLinearStripminedThreadMapINS_16PitchLinearShapeILi8ELi128EEELi256ELi1EEELi1EEENS9_19RegularTileIteratorISC_fNSD_11ColumnMajorELi1ENS8_33TransposePitchLinearThreadMapSimtISI_EELi4EEENSA_INSB_ILi8ELi128EEEfSE_Li0ENSF_INSG_ILi128ELi8EEELi256ELi1EEELi1EEENSK_ISP_fSE_Li0ESR_Li4EEEfSE_NS4_9MmaPolicyINS1_4warp7MmaSimtINS6_ILi32ELi64ELi8EEEfSL_fSE_fSE_NSV_13MmaSimtPolicyINSB_ILi4ELi8EEENSD_19RowMajorInterleavedILi2EEENS6_ILi4ELi4ELi1EEEEELi1ELNS_16ComplexTransformE0ELS14_0EbEENSB_ILi4ELi0EEENSB_ILi0ELi0EEELi1EEENS_21NumericArrayConverterIffLi4ELNS_15FloatRoundStyleE2EEES1B_bEENS_8epilogue11threadblock8EpilogueIS7_S15_Li1ENS1E_22PredicatedTileIteratorINS1E_26OutputTileOptimalThreadMapINS1E_15OutputTileShapeILi128ELi1ELi4ELi4ELi1EEENS1I_ILi1ELi4ELi2ELi1ELi8EEELi256ELi1ELi32EEEfLb0EEENS1D_4warp20FragmentIteratorSimtISX_NS1_6thread3MmaINS6_ILi8ELi8ELi1EEEfSL_fSE_fSE_NS_4arch13OpMultiplyAddEbEESE_S13_EENS1N_16TileIteratorSimtISX_S1U_fSE_S13_EENS1E_18SharedLoadIteratorINS1L_18CompactedThreadMapEfLi4EEENS1D_6thread17LinearCombinationIfLi1EffLNS21_9ScaleType4KindE0ELS1A_2EEENSB_ILi0ELi17EEELi1ELi1EEENS4_30GemmIdentityThreadblockSwizzleILi1EEELb0EEEEEvNT_6ParamsE'
GPGPU-Sim uArch: Shader 17 bind to kernel 1 '_ZN7cutlass6KernelINS_4gemm6kernel4GemmINS1_11threadblock12MmaPipelinedINS1_9GemmShapeILi128ELi128ELi8EEENS_9transform11threadblock22PredicatedTileIteratorINS_11MatrixShapeILi128ELi8EEEfNS_6layout8RowMajorELi1ENS8_30PitchLinearStripminedThreadMapINS_16PitchLinearShapeILi8ELi128EEELi256ELi1EEELi1EEENS9_19RegularTileIteratorISC_fNSD_11ColumnMajorELi1ENS8_33TransposePitchLinearThreadMapSimtISI_EELi4EEENSA_INSB_ILi8ELi128EEEfSE_Li0ENSF_INSG_ILi128ELi8EEELi256ELi1EEELi1EEENSK_ISP_fSE_Li0ESR_Li4EEEfSE_NS4_9MmaPolicyINS1_4warp7MmaSimtINS6_ILi32ELi64ELi8EEEfSL_fSE_fSE_NSV_13MmaSimtPolicyINSB_ILi4ELi8EEENSD_19RowMajorInterleavedILi2EEENS6_ILi4ELi4ELi1EEEEELi1ELNS_16ComplexTransformE0ELS14_0EbEENSB_ILi4ELi0EEENSB_ILi0ELi0EEELi1EEENS_21NumericArrayConverterIffLi4ELNS_15FloatRoundStyleE2EEES1B_bEENS_8epilogue11threadblock8EpilogueIS7_S15_Li1ENS1E_22PredicatedTileIteratorINS1E_26OutputTileOptimalThreadMapINS1E_15OutputTileShapeILi128ELi1ELi4ELi4ELi1EEENS1I_ILi1ELi4ELi2ELi1ELi8EEELi256ELi1ELi32EEEfLb0EEENS1D_4warp20FragmentIteratorSimtISX_NS1_6thread3MmaINS6_ILi8ELi8ELi1EEEfSL_fSE_fSE_NS_4arch13OpMultiplyAddEbEESE_S13_EENS1N_16TileIteratorSimtISX_S1U_fSE_S13_EENS1E_18SharedLoadIteratorINS1L_18CompactedThreadMapEfLi4EEENS1D_6thread17LinearCombinationIfLi1EffLNS21_9ScaleType4KindE0ELS1A_2EEENSB_ILi0ELi17EEELi1ELi1EEENS4_30GemmIdentityThreadblockSwizzleILi1EEELb0EEEEEvNT_6ParamsE'
GPGPU-Sim uArch: Shader 18 bind to kernel 1 '_ZN7cutlass6KernelINS_4gemm6kernel4GemmINS1_11threadblock12MmaPipelinedINS1_9GemmShapeILi128ELi128ELi8EEENS_9transform11threadblock22PredicatedTileIteratorINS_11MatrixShapeILi128ELi8EEEfNS_6layout8RowMajorELi1ENS8_30PitchLinearStripminedThreadMapINS_16PitchLinearShapeILi8ELi128EEELi256ELi1EEELi1EEENS9_19RegularTileIteratorISC_fNSD_11ColumnMajorELi1ENS8_33TransposePitchLinearThreadMapSimtISI_EELi4EEENSA_INSB_ILi8ELi128EEEfSE_Li0ENSF_INSG_ILi128ELi8EEELi256ELi1EEELi1EEENSK_ISP_fSE_Li0ESR_Li4EEEfSE_NS4_9MmaPolicyINS1_4warp7MmaSimtINS6_ILi32ELi64ELi8EEEfSL_fSE_fSE_NSV_13MmaSimtPolicyINSB_ILi4ELi8EEENSD_19RowMajorInterleavedILi2EEENS6_ILi4ELi4ELi1EEEEELi1ELNS_16ComplexTransformE0ELS14_0EbEENSB_ILi4ELi0EEENSB_ILi0ELi0EEELi1EEENS_21NumericArrayConverterIffLi4ELNS_15FloatRoundStyleE2EEES1B_bEENS_8epilogue11threadblock8EpilogueIS7_S15_Li1ENS1E_22PredicatedTileIteratorINS1E_26OutputTileOptimalThreadMapINS1E_15OutputTileShapeILi128ELi1ELi4ELi4ELi1EEENS1I_ILi1ELi4ELi2ELi1ELi8EEELi256ELi1ELi32EEEfLb0EEENS1D_4warp20FragmentIteratorSimtISX_NS1_6thread3MmaINS6_ILi8ELi8ELi1EEEfSL_fSE_fSE_NS_4arch13OpMultiplyAddEbEESE_S13_EENS1N_16TileIteratorSimtISX_S1U_fSE_S13_EENS1E_18SharedLoadIteratorINS1L_18CompactedThreadMapEfLi4EEENS1D_6thread17LinearCombinationIfLi1EffLNS21_9ScaleType4KindE0ELS1A_2EEENSB_ILi0ELi17EEELi1ELi1EEENS4_30GemmIdentityThreadblockSwizzleILi1EEELb0EEEEEvNT_6ParamsE'
GPGPU-Sim uArch: Shader 19 bind to kernel 1 '_ZN7cutlass6KernelINS_4gemm6kernel4GemmINS1_11threadblock12MmaPipelinedINS1_9GemmShapeILi128ELi128ELi8EEENS_9transform11threadblock22PredicatedTileIteratorINS_11MatrixShapeILi128ELi8EEEfNS_6layout8RowMajorELi1ENS8_30PitchLinearStripminedThreadMapINS_16PitchLinearShapeILi8ELi128EEELi256ELi1EEELi1EEENS9_19RegularTileIteratorISC_fNSD_11ColumnMajorELi1ENS8_33TransposePitchLinearThreadMapSimtISI_EELi4EEENSA_INSB_ILi8ELi128EEEfSE_Li0ENSF_INSG_ILi128ELi8EEELi256ELi1EEELi1EEENSK_ISP_fSE_Li0ESR_Li4EEEfSE_NS4_9MmaPolicyINS1_4warp7MmaSimtINS6_ILi32ELi64ELi8EEEfSL_fSE_fSE_NSV_13MmaSimtPolicyINSB_ILi4ELi8EEENSD_19RowMajorInterleavedILi2EEENS6_ILi4ELi4ELi1EEEEELi1ELNS_16ComplexTransformE0ELS14_0EbEENSB_ILi4ELi0EEENSB_ILi0ELi0EEELi1EEENS_21NumericArrayConverterIffLi4ELNS_15FloatRoundStyleE2EEES1B_bEENS_8epilogue11threadblock8EpilogueIS7_S15_Li1ENS1E_22PredicatedTileIteratorINS1E_26OutputTileOptimalThreadMapINS1E_15OutputTileShapeILi128ELi1ELi4ELi4ELi1EEENS1I_ILi1ELi4ELi2ELi1ELi8EEELi256ELi1ELi32EEEfLb0EEENS1D_4warp20FragmentIteratorSimtISX_NS1_6thread3MmaINS6_ILi8ELi8ELi1EEEfSL_fSE_fSE_NS_4arch13OpMultiplyAddEbEESE_S13_EENS1N_16TileIteratorSimtISX_S1U_fSE_S13_EENS1E_18SharedLoadIteratorINS1L_18CompactedThreadMapEfLi4EEENS1D_6thread17LinearCombinationIfLi1EffLNS21_9ScaleType4KindE0ELS1A_2EEENSB_ILi0ELi17EEELi1ELi1EEENS4_30GemmIdentityThreadblockSwizzleILi1EEELb0EEEEEvNT_6ParamsE'
[...]
Row_Buffer_Locality_write = 0.327409
Bank_Level_Parallism = 2.649440
Bank_Level_Parallism_Col = 1.467849
Bank_Level_Parallism_Ready = 1.056051
write_to_read_ratio_blp_rw_average = 0.018973
GrpLevelPara = 1.245491 

BW Util details:
bwutil = 0.057478 
total_CMD = 18385501 
util_bw = 1056768 
Wasted_Col = 8108094 
Wasted_Row = 3415534 
Idle = 5805105 

BW Util Bottlenecks: 
RCDc_limit = 11235760 
RCDWRc_limit = 89362 
WTRc_limit = 121801 
RTWc_limit = 187378 
CCDLc_limit = 526194 
rwq = 0 
CCDLc_limit_alone = 506000 
WTRc_limit_alone = 107570 
RTWc_limit_alone = 181415 

Commands details: 
total_CMD = 18385501 
n_nop = 15681940 
Read = 995328 
Write = 0 
L2_Alloc = 0 
L2_WB = 61440 
n_act = 874220 
n_pre = 874204 
n_ref = 0 
n_req = 1010688 
total_req = 1056768 

Dual Bus Interface Util: 
issued_total_row = 1748424 
issued_total_col = 1056768 
Row_Bus_Util =  0.095098 
CoL_Bus_Util = 0.057478 
Either_Row_CoL_Bus_Util = 0.147049 
Issued_on_Two_Bus_Simul_Util = 0.005528 
issued_two_Eff = 0.037592 
queue_avg = 1.580974 


dram_util_bins: 0 0 0 0 0 0 0 0 0 0
dram_eff_bins: 0 0 0 0 0 0 0 0 0 0
mrqq: max=64 avg=1.58097
Memory Partition 29: 
Cache L2_bank_058:
MSHR contents

Cache L2_bank_059:
MSHR contents

In Dram Latency Queue (total = 0): 
DRAM[29]: 16 bks, busW=16 BL=2 CL=14, tRRD=4 tCCD=1, tRCD=14 tRAS=33 tRP=14 tRC=47
n_cmd=18385501 n_nop=15681657 n_act=874252 n_pre=874236 n_ref_event=0 n_req=1010688 n_rd=995328 n_rd_L2_A=0 n_write=0 n_wr_bk=61440 bw_util=0.05748
n_activity=14024060 dram_eff=0.07535
bk0: 62208a 16349781i bk1: 62208a 16392204i bk2: 62208a 16346325i bk3: 62208a 16396456i bk4: 62208a 16346689i bk5: 62208a 16390833i bk6: 62208a 16331132i bk7: 62208a 16379515i bk8: 62208a 16328906i bk9: 62208a 16377702i bk10: 62208a 16345192i bk11: 62208a 16390365i bk12: 62208a 16341899i bk13: 62208a 16392408i bk14: 62208a 16345390i bk15: 62208a 16392444i 

------------------------------------------------------------------------

Row_Buffer_Locality = 0.134993
Row_Buffer_Locality_read = 0.132004
Row_Buffer_Locality_write = 0.328711
Bank_Level_Parallism = 2.649695
Bank_Level_Parallism_Col = 1.467864
Bank_Level_Parallism_Ready = 1.055529
write_to_read_ratio_blp_rw_average = 0.018905
GrpLevelPara = 1.245658 

BW Util details:
bwutil = 0.057478 
total_CMD = 18385501 
util_bw = 1056768 
Wasted_Col = 8107200 
Wasted_Row = 3415390 
Idle = 5806143 

BW Util Bottlenecks: 
RCDc_limit = 11235379 
RCDWRc_limit = 88976 
WTRc_limit = 122234 
RTWc_limit = 186344 
CCDLc_limit = 526166 
rwq = 0 
CCDLc_limit_alone = 505778 
WTRc_limit_alone = 107771 
RTWc_limit_alone = 180419 

Commands details: 
total_CMD = 18385501 
n_nop = 15681657 
Read = 995328 
Write = 0 
L2_Alloc = 0 
L2_WB = 61440 
n_act = 874252 
n_pre = 874236 
n_ref = 0 
n_req = 1010688 
total_req = 1056768 

Dual Bus Interface Util: 
issued_total_row = 1748488 
issued_total_col = 1056768 
Row_Bus_Util =  0.095101 
CoL_Bus_Util = 0.057478 
Either_Row_CoL_Bus_Util = 0.147064 
Issued_on_Two_Bus_Simul_Util = 0.005516 
issued_two_Eff = 0.037507 
queue_avg = 1.579679 


dram_util_bins: 0 0 0 0 0 0 0 0 0 0
dram_eff_bins: 0 0 0 0 0 0 0 0 0 0
mrqq: max=64 avg=1.57968
Memory Partition 30: 
Cache L2_bank_060:
MSHR contents

Cache L2_bank_061:
MSHR contents

In Dram Latency Queue (total = 0): 
DRAM[30]: 16 bks, busW=16 BL=2 CL=14, tRRD=4 tCCD=1, tRCD=14 tRAS=33 tRP=14 tRC=47
n_cmd=18385501 n_nop=15681546 n_act=874206 n_pre=874190 n_ref_event=0 n_req=1010688 n_rd=995328 n_rd_L2_A=0 n_write=0 n_wr_bk=61440 bw_util=0.05748
n_activity=14025045 dram_eff=0.07535
bk0: 62208a 16349870i bk1: 62208a 16393435i bk2: 62208a 16344485i bk3: 62208a 16395283i bk4: 62208a 16348891i bk5: 62208a 16390884i bk6: 62208a 16331584i bk7: 62208a 16377693i bk8: 62208a 16328884i bk9: 62208a 16378198i bk10: 62208a 16346058i bk11: 62208a 16389483i bk12: 62208a 16340455i bk13: 62208a 16393852i bk14: 62208a 16343537i bk15: 62208a 16393065i 

------------------------------------------------------------------------

Row_Buffer_Locality = 0.135039
Row_Buffer_Locality_read = 0.132045
Row_Buffer_Locality_write = 0.329036
Bank_Level_Parallism = 2.649238
Bank_Level_Parallism_Col = 1.467478
Bank_Level_Parallism_Ready = 1.055656
write_to_read_ratio_blp_rw_average = 0.018987
GrpLevelPara = 1.245672 

BW Util details:
bwutil = 0.057478 
total_CMD = 18385501 
util_bw = 1056768 
Wasted_Col = 8109769 
Wasted_Row = 3415589 
Idle = 5803375 

BW Util Bottlenecks: 
RCDc_limit = 11236052 
RCDWRc_limit = 89127 
WTRc_limit = 120814 
RTWc_limit = 188030 
CCDLc_limit = 525745 
rwq = 0 
CCDLc_limit_alone = 505372 
WTRc_limit_alone = 106156 
RTWc_limit_alone = 182315 

Commands details: 
total_CMD = 18385501 
n_nop = 15681546 
Read = 995328 
Write = 0 
L2_Alloc = 0 
L2_WB = 61440 
n_act = 874206 
n_pre = 874190 
n_ref = 0 
n_req = 1010688 
total_req = 1056768 

Dual Bus Interface Util: 
issued_total_row = 1748396 
issued_total_col = 1056768 
Row_Bus_Util =  0.095096 
CoL_Bus_Util = 0.057478 
Either_Row_CoL_Bus_Util = 0.147070 
Issued_on_Two_Bus_Simul_Util = 0.005505 
issued_two_Eff = 0.037430 
queue_avg = 1.581841 


dram_util_bins: 0 0 0 0 0 0 0 0 0 0
dram_eff_bins: 0 0 0 0 0 0 0 0 0 0
mrqq: max=64 avg=1.58184
Memory Partition 31: 
Cache L2_bank_062:
MSHR contents

Cache L2_bank_063:
MSHR contents

In Dram Latency Queue (total = 0): 
DRAM[31]: 16 bks, busW=16 BL=2 CL=14, tRRD=4 tCCD=1, tRCD=14 tRAS=33 tRP=14 tRC=47
n_cmd=18385501 n_nop=15682306 n_act=874243 n_pre=874227 n_ref_event=0 n_req=1010688 n_rd=995328 n_rd_L2_A=0 n_write=0 n_wr_bk=61440 bw_util=0.05748
n_activity=14024118 dram_eff=0.07535
bk0: 62208a 16351063i bk1: 62208a 16393750i bk2: 62208a 16344679i bk3: 62208a 16395445i bk4: 62208a 16347676i bk5: 62208a 16391663i bk6: 62208a 16332057i bk7: 62208a 16380290i bk8: 62208a 16329814i bk9: 62208a 16378383i bk10: 62208a 16343437i bk11: 62208a 16390062i bk12: 62208a 16342072i bk13: 62208a 16392276i bk14: 62208a 16345138i bk15: 62208a 16391940i 

------------------------------------------------------------------------

Row_Buffer_Locality = 0.135002
Row_Buffer_Locality_read = 0.132016
Row_Buffer_Locality_write = 0.328516
Bank_Level_Parallism = 2.649321
Bank_Level_Parallism_Col = 1.467219
Bank_Level_Parallism_Ready = 1.055677
write_to_read_ratio_blp_rw_average = 0.018929
GrpLevelPara = 1.244967 

BW Util details:
bwutil = 0.057478 
total_CMD = 18385501 
util_bw = 1056768 
Wasted_Col = 8110399 
Wasted_Row = 3413024 
Idle = 5805310 

BW Util Bottlenecks: 
RCDc_limit = 11234633 
RCDWRc_limit = 89340 
WTRc_limit = 120944 
RTWc_limit = 186559 
CCDLc_limit = 525521 
rwq = 0 
CCDLc_limit_alone = 505597 
WTRc_limit_alone = 106786 
RTWc_limit_alone = 180793 

Commands details: 
total_CMD = 18385501 
n_nop = 15682306 
Read = 995328 
Write = 0 
L2_Alloc = 0 
L2_WB = 61440 
n_act = 874243 
n_pre = 874227 
n_ref = 0 
n_req = 1010688 
total_req = 1056768 

Dual Bus Interface Util: 
issued_total_row = 1748470 
issued_total_col = 1056768 
Row_Bus_Util =  0.095100 
CoL_Bus_Util = 0.057478 
Either_Row_CoL_Bus_Util = 0.147029 
Issued_on_Two_Bus_Simul_Util = 0.005550 
issued_two_Eff = 0.037749 
queue_avg = 1.582743 


dram_util_bins: 0 0 0 0 0 0 0 0 0 0
dram_eff_bins: 0 0 0 0 0 0 0 0 0 0
mrqq: max=64 avg=1.58274

========= L2 cache stats =========
L2_cache_bank[0]: Access = 2162688, Miss = 497664, Miss_rate = 0.230, Pending_hits = 38767, Reservation_fails = 18821
L2_cache_bank[1]: Access = 2162688, Miss = 497664, Miss_rate = 0.230, Pending_hits = 38612, Reservation_fails = 19373
L2_cache_bank[2]: Access = 2162688, Miss = 497664, Miss_rate = 0.230, Pending_hits = 38768, Reservation_fails = 18412
L2_cache_bank[3]: Access = 2162688, Miss = 497664, Miss_rate = 0.230, Pending_hits = 38823, Reservation_fails = 18503
L2_cache_bank[4]: Access = 2162688, Miss = 497664, Miss_rate = 0.230, Pending_hits = 38710, Reservation_fails = 18056
L2_cache_bank[5]: Access = 2162688, Miss = 497664, Miss_rate = 0.230, Pending_hits = 38685, Reservation_fails = 18006
L2_cache_bank[6]: Access = 2162688, Miss = 497664, Miss_rate = 0.230, Pending_hits = 38544, Reservation_fails = 17573
L2_cache_bank[7]: Access = 2162688, Miss = 497664, Miss_rate = 0.230, Pending_hits = 38531, Reservation_fails = 18353
L2_cache_bank[8]: Access = 2162688, Miss = 497664, Miss_rate = 0.230, Pending_hits = 38697, Reservation_fails = 20201
L2_cache_bank[9]: Access = 2162688, Miss = 497664, Miss_rate = 0.230, Pending_hits = 38560, Reservation_fails = 18792
L2_cache_bank[10]: Access = 2162688, Miss = 497664, Miss_rate = 0.230, Pending_hits = 38768, Reservation_fails = 18141
L2_cache_bank[11]: Access = 2162688, Miss = 497664, Miss_rate = 0.230, Pending_hits = 38682, Reservation_fails = 19392
L2_cache_bank[12]: Access = 2162688, Miss = 497664, Miss_rate = 0.230, Pending_hits = 38675, Reservation_fails = 18618
L2_cache_bank[13]: Access = 2162688, Miss = 497664, Miss_rate = 0.230, Pending_hits = 38841, Reservation_fails = 18491
L2_cache_bank[14]: Access = 2162688, Miss = 497664, Miss_rate = 0.230, Pending_hits = 38755, Reservation_fails = 18966
L2_cache_bank[15]: Access = 2162688, Miss = 497664, Miss_rate = 0.230, Pending_hits = 38761, Reservation_fails = 19076
L2_cache_bank[16]: Access = 2162688, Miss = 497664, Miss_rate = 0.230, Pending_hits = 38721, Reservation_fails = 18103
L2_cache_bank[17]: Access = 2162688, Miss = 497664, Miss_rate = 0.230, Pending_hits = 38759, Reservation_fails = 18915
L2_cache_bank[18]: Access = 2162688, Miss = 497664, Miss_rate = 0.230, Pending_hits = 38846, Reservation_fails = 17837
L2_cache_bank[19]: Access = 2162688, Miss = 497664, Miss_rate = 0.230, Pending_hits = 38668, Reservation_fails = 16971
L2_cache_bank[20]: Access = 2162688, Miss = 497664, Miss_rate = 0.230, Pending_hits = 38605, Reservation_fails = 17510
L2_cache_bank[21]: Access = 2162688, Miss = 497664, Miss_rate = 0.230, Pending_hits = 38618, Reservation_fails = 17326
L2_cache_bank[22]: Access = 2162688, Miss = 497664, Miss_rate = 0.230, Pending_hits = 38741, Reservation_fails = 17413
L2_cache_bank[23]: Access = 2162688, Miss = 497664, Miss_rate = 0.230, Pending_hits = 38685, Reservation_fails = 18137
L2_cache_bank[24]: Access = 2162688, Miss = 497664, Miss_rate = 0.230, Pending_hits = 38510, Reservation_fails = 17099
L2_cache_bank[25]: Access = 2162688, Miss = 497664, Miss_rate = 0.230, Pending_hits = 38601, Reservation_fails = 16760
L2_cache_bank[26]: Access = 2162688, Miss = 497664, Miss_rate = 0.230, Pending_hits = 38567, Reservation_fails = 17217
L2_cache_bank[27]: Access = 2162688, Miss = 497664, Miss_rate = 0.230, Pending_hits = 38730, Reservation_fails = 17612
L2_cache_bank[28]: Access = 2162688, Miss = 497664, Miss_rate = 0.230, Pending_hits = 38643, Reservation_fails = 17129
L2_cache_bank[29]: Access = 2162688, Miss = 497664, Miss_rate = 0.230, Pending_hits = 38758, Reservation_fails = 17171
L2_cache_bank[30]: Access = 2162688, Miss = 497664, Miss_rate = 0.230, Pending_hits = 38679, Reservation_fails = 16979
L2_cache_bank[31]: Access = 2162688, Miss = 497664, Miss_rate = 0.230, Pending_hits = 38587, Reservation_fails = 17302
L2_cache_bank[32]: Access = 2162688, Miss = 497664, Miss_rate = 0.230, Pending_hits = 38591, Reservation_fails = 18543
L2_cache_bank[33]: Access = 2162688, Miss = 497664, Miss_rate = 0.230, Pending_hits = 38627, Reservation_fails = 17871
L2_cache_bank[34]: Access = 2162688, Miss = 497664, Miss_rate = 0.230, Pending_hits = 38655, Reservation_fails = 17956
L2_cache_bank[35]: Access = 2162688, Miss = 497664, Miss_rate = 0.230, Pending_hits = 38522, Reservation_fails = 18256
L2_cache_bank[36]: Access = 2162688, Miss = 497664, Miss_rate = 0.230, Pending_hits = 38841, Reservation_fails = 18738
L2_cache_bank[37]: Access = 2162688, Miss = 497664, Miss_rate = 0.230, Pending_hits = 38730, Reservation_fails = 18978
L2_cache_bank[38]: Access = 2162688, Miss = 497664, Miss_rate = 0.230, Pending_hits = 38683, Reservation_fails = 18395
L2_cache_bank[39]: Access = 2162688, Miss = 497664, Miss_rate = 0.230, Pending_hits = 38652, Reservation_fails = 18451
L2_cache_bank[40]: Access = 2162688, Miss = 497664, Miss_rate = 0.230, Pending_hits = 38641, Reservation_fails = 17866
L2_cache_bank[41]: Access = 2162688, Miss = 497664, Miss_rate = 0.230, Pending_hits = 38679, Reservation_fails = 17666
L2_cache_bank[42]: Access = 2162688, Miss = 497664, Miss_rate = 0.230, Pending_hits = 38642, Reservation_fails = 18360
L2_cache_bank[43]: Access = 2162688, Miss = 497664, Miss_rate = 0.230, Pending_hits = 38709, Reservation_fails = 17945
L2_cache_bank[44]: Access = 2162688, Miss = 497664, Miss_rate = 0.230, Pending_hits = 38591, Reservation_fails = 18068
L2_cache_bank[45]: Access = 2162688, Miss = 497664, Miss_rate = 0.230, Pending_hits = 38633, Reservation_fails = 19010
L2_cache_bank[46]: Access = 2162688, Miss = 497664, Miss_rate = 0.230, Pending_hits = 38685, Reservation_fails = 18586
L2_cache_bank[47]: Access = 2162688, Miss = 497664, Miss_rate = 0.230, Pending_hits = 38732, Reservation_fails = 18773
L2_cache_bank[48]: Access = 2162688, Miss = 497664, Miss_rate = 0.230, Pending_hits = 38814, Reservation_fails = 17767
L2_cache_bank[49]: Access = 2162688, Miss = 497664, Miss_rate = 0.230, Pending_hits = 38838, Reservation_fails = 17999
L2_cache_bank[50]: Access = 2162688, Miss = 497664, Miss_rate = 0.230, Pending_hits = 38777, Reservation_fails = 18108
L2_cache_bank[51]: Access = 2162688, Miss = 497664, Miss_rate = 0.230, Pending_hits = 38967, Reservation_fails = 17434
L2_cache_bank[52]: Access = 2162688, Miss = 497664, Miss_rate = 0.230, Pending_hits = 38598, Reservation_fails = 17740
L2_cache_bank[53]: Access = 2162688, Miss = 497664, Miss_rate = 0.230, Pending_hits = 38788, Reservation_fails = 17915
L2_cache_bank[54]: Access = 2162688, Miss = 497664, Miss_rate = 0.230, Pending_hits = 38630, Reservation_fails = 16904
L2_cache_bank[55]: Access = 2162688, Miss = 497664, Miss_rate = 0.230, Pending_hits = 38477, Reservation_fails = 16451
L2_cache_bank[56]: Access = 2162688, Miss = 497664, Miss_rate = 0.230, Pending_hits = 38589, Reservation_fails = 17719
L2_cache_bank[57]: Access = 2162688, Miss = 497664, Miss_rate = 0.230, Pending_hits = 38586, Reservation_fails = 17236
L2_cache_bank[58]: Access = 2162688, Miss = 497664, Miss_rate = 0.230, Pending_hits = 38458, Reservation_fails = 16984
L2_cache_bank[59]: Access = 2162688, Miss = 497664, Miss_rate = 0.230, Pending_hits = 38654, Reservation_fails = 17114
L2_cache_bank[60]: Access = 2162688, Miss = 497664, Miss_rate = 0.230, Pending_hits = 38540, Reservation_fails = 16606
L2_cache_bank[61]: Access = 2162688, Miss = 497664, Miss_rate = 0.230, Pending_hits = 38643, Reservation_fails = 16616
L2_cache_bank[62]: Access = 2162688, Miss = 497664, Miss_rate = 0.230, Pending_hits = 38513, Reservation_fails = 16848
L2_cache_bank[63]: Access = 2162688, Miss = 497664, Miss_rate = 0.230, Pending_hits = 38468, Reservation_fails = 16828
L2_total_cache_accesses = 138412032
L2_total_cache_misses = 31850496
L2_total_cache_miss_rate = 0.2301
L2_total_cache_pending_hits = 2474850
L2_total_cache_reservation_fails = 1147986
L2_total_cache_breakdown:
	L2_cache_stats_breakdown[GLOBAL_ACC_R][HIT] = 101989534
	L2_cache_stats_breakdown[GLOBAL_ACC_R][HIT_RESERVED] = 2474850
	L2_cache_stats_breakdown[GLOBAL_ACC_R][MISS] = 7962624
	L2_cache_stats_breakdown[GLOBAL_ACC_R][RESERVATION_FAIL] = 1147986
	L2_cache_stats_breakdown[GLOBAL_ACC_R][SECTOR_MISS] = 23887872
	L2_cache_stats_breakdown[LOCAL_ACC_R][HIT] = 0
	L2_cache_stats_breakdown[LOCAL_ACC_R][HIT_RESERVED] = 0
	L2_cache_stats_breakdown[LOCAL_ACC_R][MISS] = 0
	L2_cache_stats_breakdown[LOCAL_ACC_R][RESERVATION_FAIL] = 0
	L2_cache_stats_breakdown[LOCAL_ACC_R][SECTOR_MISS] = 0
	L2_cache_stats_breakdown[CONST_ACC_R][HIT] = 0
	L2_cache_stats_breakdown[CONST_ACC_R][HIT_RESERVED] = 0
	L2_cache_stats_breakdown[CONST_ACC_R][MISS] = 0
	L2_cache_stats_breakdown[CONST_ACC_R][RESERVATION_FAIL] = 0
	L2_cache_stats_breakdown[CONST_ACC_R][SECTOR_MISS] = 0
	L2_cache_stats_breakdown[TEXTURE_ACC_R][HIT] = 0
	L2_cache_stats_breakdown[TEXTURE_ACC_R][HIT_RESERVED] = 0
	L2_cache_stats_breakdown[TEXTURE_ACC_R][MISS] = 0
	L2_cache_stats_breakdown[TEXTURE_ACC_R][RESERVATION_FAIL] = 0
	L2_cache_stats_breakdown[TEXTURE_ACC_R][SECTOR_MISS] = 0
	L2_cache_stats_breakdown[GLOBAL_ACC_W][HIT] = 2097152
	L2_cache_stats_breakdown[GLOBAL_ACC_W][HIT_RESERVED] = 0
	L2_cache_stats_breakdown[GLOBAL_ACC_W][MISS] = 0
	L2_cache_stats_breakdown[GLOBAL_ACC_W][RESERVATION_FAIL] = 0
	L2_cache_stats_breakdown[GLOBAL_ACC_W][SECTOR_MISS] = 0
	L2_cache_stats_breakdown[LOCAL_ACC_W][HIT] = 0
	L2_cache_stats_breakdown[LOCAL_ACC_W][HIT_RESERVED] = 0
	L2_cache_stats_breakdown[LOCAL_ACC_W][MISS] = 0
	L2_cache_stats_breakdown[LOCAL_ACC_W][RESERVATION_FAIL] = 0
	L2_cache_stats_breakdown[LOCAL_ACC_W][SECTOR_MISS] = 0
	L2_cache_stats_breakdown[L1_WRBK_ACC][HIT] = 0
	L2_cache_stats_breakdown[L1_WRBK_ACC][HIT_RESERVED] = 0
	L2_cache_stats_breakdown[L1_WRBK_ACC][MISS] = 0
	L2_cache_stats_breakdown[L1_WRBK_ACC][RESERVATION_FAIL] = 0
	L2_cache_stats_breakdown[L1_WRBK_ACC][SECTOR_MISS] = 0
	L2_cache_stats_breakdown[L2_WRBK_ACC][HIT] = 0
	L2_cache_stats_breakdown[L2_WRBK_ACC][HIT_RESERVED] = 0
	L2_cache_stats_breakdown[L2_WRBK_ACC][MISS] = 0
	L2_cache_stats_breakdown[L2_WRBK_ACC][RESERVATION_FAIL] = 0
	L2_cache_stats_breakdown[L2_WRBK_ACC][SECTOR_MISS] = 0
	L2_cache_stats_breakdown[INST_ACC_R][HIT] = 0
	L2_cache_stats_breakdown[INST_ACC_R][HIT_RESERVED] = 0
	L2_cache_stats_breakdown[INST_ACC_R][MISS] = 0
	L2_cache_stats_breakdown[INST_ACC_R][RESERVATION_FAIL] = 0
	L2_cache_stats_breakdown[INST_ACC_R][SECTOR_MISS] = 0
	L2_cache_stats_breakdown[L1_WR_ALLOC_R][HIT] = 0
	L2_cache_stats_breakdown[L1_WR_ALLOC_R][HIT_RESERVED] = 0
	L2_cache_stats_breakdown[L1_WR_ALLOC_R][MISS] = 0
	L2_cache_stats_breakdown[L1_WR_ALLOC_R][RESERVATION_FAIL] = 0
	L2_cache_stats_breakdown[L1_WR_ALLOC_R][SECTOR_MISS] = 0
	L2_cache_stats_breakdown[L2_WR_ALLOC_R][HIT] = 0
	L2_cache_stats_breakdown[L2_WR_ALLOC_R][HIT_RESERVED] = 0
	L2_cache_stats_breakdown[L2_WR_ALLOC_R][MISS] = 0
	L2_cache_stats_breakdown[L2_WR_ALLOC_R][RESERVATION_FAIL] = 0
	L2_cache_stats_breakdown[L2_WR_ALLOC_R][SECTOR_MISS] = 0
	L2_cache_stats_breakdown[GLOBAL_ACC_R][TOTAL_ACCESS] = 136314880
	L2_cache_stats_breakdown[GLOBAL_ACC_W][TOTAL_ACCESS] = 2097152
L2_total_cache_reservation_fail_breakdown:
	L2_cache_stats_fail_breakdown[GLOBAL_ACC_R][MSHR_MERGE_ENRTY_FAIL] = 1147986
L2_cache_data_port_util = 0.074
L2_cache_fill_port_util = 0.023

icnt_total_pkts_mem_to_simt=138412032
icnt_total_pkts_simt_to_mem=138412032
LD_mem_lat_dist  0 0 0 0 0 0 0 0 0 0 0 0 0 0 0 0 0 0 0 0 0 0 0 0 0 0 0
ST_mem_lat_dist  0 0 0 0 0 0 0 0 0 0 0 0 0 0 0 0 0 0 0 0 0 0 0 0 0 0 0
----------------------------Interconnect-DETAILS--------------------------------
Req_Network_injected_packets_num = 138412032
Req_Network_cycles = 22062601
Req_Network_injected_packets_per_cycle =       6.2736 
Req_Network_conflicts_per_cycle =       1.0533
Req_Network_conflicts_per_cycle_util =       1.0934
Req_Bank_Level_Parallism =       6.5124
Req_Network_in_buffer_full_per_cycle =       0.0000
Req_Network_in_buffer_avg_util =       0.7272
Req_Network_out_buffer_full_per_cycle =       0.0000
Req_Network_out_buffer_avg_util =       0.2090

Reply_Network_injected_packets_num = 138412032
Reply_Network_cycles = 22062601
Reply_Network_injected_packets_per_cycle =        6.2736
Reply_Network_conflicts_per_cycle =       22.3199
Reply_Network_conflicts_per_cycle_util =      23.1891
Reply_Bank_Level_Parallism =       6.5179
Reply_Network_in_buffer_full_per_cycle =       0.0000
Reply_Network_in_buffer_avg_util =       5.0433
Reply_Network_out_buffer_full_per_cycle =       0.0000
Reply_Network_out_buffer_avg_util =       0.0784
----------------------------END-of-Interconnect-DETAILS-------------------------


gpgpu_simulation_time = 2 days, 9 hrs, 34 min, 48 sec (207288 sec)
gpgpu_simulation_rate = 469764 (inst/sec)
gpgpu_simulation_rate = 106 (cycle/sec)
gpgpu_silicon_slowdown = 11320754x
GPGPU-Sim: *** exit detected ***
