

        *** GPGPU-Sim Simulator Version 4.0.0  [build gpgpu-sim_git-commit-1f087ddea7f19201059578297240834b381c52e8_modified_3.0] ***


GPGPU-Sim PTX: simulation mode 0 (can change with PTX_SIM_MODE_FUNC environment variable:
               1=functional simulation only, 0=detailed performance simulator)
GPGPU-Sim PTX: overriding embedded ptx with ptx file (PTX_SIM_USE_PTX_FILE is set)
GPGPU-Sim: Configuration options:

-save_embedded_ptx                      0 # saves ptx files embedded in binary as <n>.ptx
-keep                                   0 # keep intermediate files created by GPGPU-Sim when interfacing with external programs
-gpgpu_ptx_save_converted_ptxplus                    0 # Saved converted ptxplus to a file
-gpgpu_occupancy_sm_number                   70 # The SM number to pass to ptxas when getting register usage for computing GPU occupancy. This parameter is required in the config.
-ptx_opcode_latency_int      4,13,4,5,145,21 # Opcode latencies for integers <ADD,MAX,MUL,MAD,DIV,SHFL>Default 1,1,19,25,145,32
-ptx_opcode_latency_fp          4,13,4,5,39 # Opcode latencies for single precision floating points <ADD,MAX,MUL,MAD,DIV>Default 1,1,1,1,30
-ptx_opcode_latency_dp         8,19,8,8,330 # Opcode latencies for double precision floating points <ADD,MAX,MUL,MAD,DIV>Default 8,8,8,8,335
-ptx_opcode_latency_sfu                  100 # Opcode latencies for SFU instructionsDefault 8
-ptx_opcode_latency_tesnor                   64 # Opcode latencies for Tensor instructionsDefault 64
-ptx_opcode_initiation_int          2,2,2,2,8,4 # Opcode initiation intervals for integers <ADD,MAX,MUL,MAD,DIV,SHFL>Default 1,1,4,4,32,4
-ptx_opcode_initiation_fp            2,2,2,2,4 # Opcode initiation intervals for single precision floating points <ADD,MAX,MUL,MAD,DIV>Default 1,1,1,1,5
-ptx_opcode_initiation_dp          4,4,4,4,130 # Opcode initiation intervals for double precision floating points <ADD,MAX,MUL,MAD,DIV>Default 8,8,8,8,130
-ptx_opcode_initiation_sfu                    8 # Opcode initiation intervals for sfu instructionsDefault 8
-ptx_opcode_initiation_tensor                   64 # Opcode initiation intervals for tensor instructionsDefault 64
-cdp_latency         7200,8000,100,12000,1600 # CDP API latency <cudaStreamCreateWithFlags, cudaGetParameterBufferV2_init_perWarp, cudaGetParameterBufferV2_perKernel, cudaLaunchDeviceV2_init_perWarp, cudaLaunchDevicV2_perKernel>Default 7200,8000,100,12000,1600
-network_mode                           2 # Interconnection network mode
-inter_config_file                   mesh # Interconnection network config file
-icnt_in_buffer_limit                  512 # in_buffer_limit
-icnt_out_buffer_limit                  512 # out_buffer_limit
-icnt_subnets                           2 # subnets
-icnt_arbiter_algo                      1 # arbiter_algo
-icnt_verbose                           0 # inct_verbose
-icnt_grant_cycles                      1 # grant_cycles
-gpgpu_ptx_use_cuobjdump                    1 # Use cuobjdump to extract ptx and sass from binaries
-gpgpu_experimental_lib_support                    0 # Try to extract code from cuda libraries [Broken because of unknown cudaGetExportTable]
-checkpoint_option                      0 #  checkpointing flag (0 = no checkpoint)
-checkpoint_kernel                      1 #  checkpointing during execution of which kernel (1- 1st kernel)
-checkpoint_CTA                         0 #  checkpointing after # of CTA (< less than total CTA)
-resume_option                          0 #  resume flag (0 = no resume)
-resume_kernel                          0 #  Resume from which kernel (1= 1st kernel)
-resume_CTA                             0 #  resume from which CTA 
-checkpoint_CTA_t                       0 #  resume from which CTA 
-checkpoint_insn_Y                      0 #  resume from which CTA 
-gpgpu_ptx_convert_to_ptxplus                    0 # Convert SASS (native ISA) to ptxplus and run ptxplus
-gpgpu_ptx_force_max_capability                   70 # Force maximum compute capability
-gpgpu_ptx_inst_debug_to_file                    0 # Dump executed instructions' debug information to file
-gpgpu_ptx_inst_debug_file       inst_debug.txt # Executed instructions' debug output file
-gpgpu_ptx_inst_debug_thread_uid                    1 # Thread UID for executed instructions' debug output
-gpgpu_simd_model                       1 # 1 = post-dominator
-gpgpu_shader_core_pipeline              2048:32 # shader core pipeline config, i.e., {<nthread>:<warpsize>}
-gpgpu_tex_cache:l1  N:4:128:256,L:R:m:N:L,T:512:8,128:2 # per-shader L1 texture cache  (READ-ONLY) config  {<nsets>:<bsize>:<assoc>,<rep>:<wr>:<alloc>:<wr_alloc>,<mshr>:<N>:<merge>,<mq>:<rf>}
-gpgpu_const_cache:l1 N:128:64:8,L:R:f:N:L,S:2:64,4 # per-shader L1 constant memory cache  (READ-ONLY) config  {<nsets>:<bsize>:<assoc>,<rep>:<wr>:<alloc>:<wr_alloc>,<mshr>:<N>:<merge>,<mq>} 
-gpgpu_cache:il1     N:64:128:16,L:R:f:N:L,S:2:48,4 # shader L1 instruction cache config  {<nsets>:<bsize>:<assoc>,<rep>:<wr>:<alloc>:<wr_alloc>,<mshr>:<N>:<merge>,<mq>} 
-gpgpu_cache:dl1     S:1:128:256,L:L:s:N:L,A:256:8,16:0,32 # per-shader L1 data cache config  {<nsets>:<bsize>:<assoc>,<rep>:<wr>:<alloc>:<wr_alloc>,<mshr>:<N>:<merge>,<mq> | none}
-gpgpu_l1_banks                         4 # The number of L1 cache banks
-gpgpu_l1_banks_byte_interleaving                   32 # l1 banks byte interleaving granularity
-gpgpu_l1_banks_hashing_function                    0 # l1 banks hashing function
-gpgpu_l1_latency                      20 # L1 Hit Latency
-gpgpu_smem_latency                    20 # smem Latency
-gpgpu_cache:dl1PrefL1                 none # per-shader L1 data cache config  {<nsets>:<bsize>:<assoc>,<rep>:<wr>:<alloc>:<wr_alloc>,<mshr>:<N>:<merge>,<mq> | none}
-gpgpu_cache:dl1PrefShared                 none # per-shader L1 data cache config  {<nsets>:<bsize>:<assoc>,<rep>:<wr>:<alloc>:<wr_alloc>,<mshr>:<N>:<merge>,<mq> | none}
-gpgpu_gmem_skip_L1D                    0 # global memory access skip L1D cache (implements -Xptxas -dlcm=cg, default=no skip)
-gpgpu_perfect_mem                      0 # enable perfect memory mode (no cache miss)
-n_regfile_gating_group                    4 # group of lanes that should be read/written together)
-gpgpu_clock_gated_reg_file                    0 # enable clock gated reg file for power calculations
-gpgpu_clock_gated_lanes                    0 # enable clock gated lanes for power calculations
-gpgpu_shader_registers                65536 # Number of registers per shader core. Limits number of concurrent CTAs. (default 8192)
-gpgpu_registers_per_block                65536 # Maximum number of registers per CTA. (default 8192)
-gpgpu_ignore_resources_limitation                    0 # gpgpu_ignore_resources_limitation (default 0)
-gpgpu_shader_cta                      32 # Maximum number of concurrent CTAs in shader (default 8)
-gpgpu_num_cta_barriers                   16 # Maximum number of named barriers per CTA (default 16)
-gpgpu_n_clusters                      80 # number of processing clusters
-gpgpu_n_cores_per_cluster                    1 # number of simd cores per cluster
-gpgpu_n_cluster_ejection_buffer_size                   32 # number of packets in ejection buffer
-gpgpu_n_ldst_response_buffer_size                    2 # number of response packets in ld/st unit ejection buffer
-gpgpu_shmem_per_block                65536 # Size of shared memory per thread block or CTA (default 48kB)
-gpgpu_shmem_size                   98304 # Size of shared memory per shader core (default 16kB)
-gpgpu_adaptive_cache_config                    1 # adaptive_cache_config
-gpgpu_shmem_sizeDefault                98304 # Size of shared memory per shader core (default 16kB)
-gpgpu_shmem_size_PrefL1                16384 # Size of shared memory per shader core (default 16kB)
-gpgpu_shmem_size_PrefShared                16384 # Size of shared memory per shader core (default 16kB)
-gpgpu_shmem_num_banks                   32 # Number of banks in the shared memory in each shader core (default 16)
-gpgpu_shmem_limited_broadcast                    0 # Limit shared memory to do one broadcast per cycle (default on)
-gpgpu_shmem_warp_parts                    1 # Number of portions a warp is divided into for shared memory bank conflict check 
-gpgpu_mem_unit_ports                    1 # The number of memory transactions allowed per core cycle
-gpgpu_shmem_warp_parts                    1 # Number of portions a warp is divided into for shared memory bank conflict check 
-gpgpu_warpdistro_shader                   -1 # Specify which shader core to collect the warp size distribution from
-gpgpu_warp_issue_shader                    0 # Specify which shader core to collect the warp issue distribution from
-gpgpu_local_mem_map                    1 # Mapping from local memory space address to simulated GPU physical address space (default = enabled)
-gpgpu_num_reg_banks                   16 # Number of register banks (default = 8)
-gpgpu_reg_bank_use_warp_id                    0 # Use warp ID in mapping registers to banks (default = off)
-gpgpu_sub_core_model                    1 # Sub Core Volta/Pascal model (default = off)
-gpgpu_enable_specialized_operand_collector                    0 # enable_specialized_operand_collector
-gpgpu_operand_collector_num_units_sp                    4 # number of collector units (default = 4)
-gpgpu_operand_collector_num_units_dp                    0 # number of collector units (default = 0)
-gpgpu_operand_collector_num_units_sfu                    4 # number of collector units (default = 4)
-gpgpu_operand_collector_num_units_int                    0 # number of collector units (default = 0)
-gpgpu_operand_collector_num_units_tensor_core                    4 # number of collector units (default = 4)
-gpgpu_operand_collector_num_units_mem                    2 # number of collector units (default = 2)
-gpgpu_operand_collector_num_units_gen                    8 # number of collector units (default = 0)
-gpgpu_operand_collector_num_in_ports_sp                    1 # number of collector unit in ports (default = 1)
-gpgpu_operand_collector_num_in_ports_dp                    0 # number of collector unit in ports (default = 0)
-gpgpu_operand_collector_num_in_ports_sfu                    1 # number of collector unit in ports (default = 1)
-gpgpu_operand_collector_num_in_ports_int                    0 # number of collector unit in ports (default = 0)
-gpgpu_operand_collector_num_in_ports_tensor_core                    1 # number of collector unit in ports (default = 1)
-gpgpu_operand_collector_num_in_ports_mem                    1 # number of collector unit in ports (default = 1)
-gpgpu_operand_collector_num_in_ports_gen                    8 # number of collector unit in ports (default = 0)
-gpgpu_operand_collector_num_out_ports_sp                    1 # number of collector unit in ports (default = 1)
-gpgpu_operand_collector_num_out_ports_dp                    0 # number of collector unit in ports (default = 0)
-gpgpu_operand_collector_num_out_ports_sfu                    1 # number of collector unit in ports (default = 1)
-gpgpu_operand_collector_num_out_ports_int                    0 # number of collector unit in ports (default = 0)
-gpgpu_operand_collector_num_out_ports_tensor_core                    1 # number of collector unit in ports (default = 1)
-gpgpu_operand_collector_num_out_ports_mem                    1 # number of collector unit in ports (default = 1)
-gpgpu_operand_collector_num_out_ports_gen                    8 # number of collector unit in ports (default = 0)
-gpgpu_coalesce_arch                   60 # Coalescing arch (GT200 = 13, Fermi = 20)
-gpgpu_num_sched_per_core                    4 # Number of warp schedulers per core
-gpgpu_max_insn_issue_per_warp                    1 # Max number of instructions that can be issued per warp in one cycle by scheduler (either 1 or 2)
-gpgpu_dual_issue_diff_exec_units                    1 # should dual issue use two different execution unit resources (Default = 1)
-gpgpu_simt_core_sim_order                    1 # Select the simulation order of cores in a cluster (0=Fix, 1=Round-Robin)
-gpgpu_pipeline_widths 4,4,4,4,4,4,4,4,4,4,8,4,4 # Pipeline widths ID_OC_SP,ID_OC_DP,ID_OC_INT,ID_OC_SFU,ID_OC_MEM,OC_EX_SP,OC_EX_DP,OC_EX_INT,OC_EX_SFU,OC_EX_MEM,EX_WB,ID_OC_TENSOR_CORE,OC_EX_TENSOR_CORE
-gpgpu_tensor_core_avail                    0 # Tensor Core Available (default=0)
-gpgpu_num_sp_units                     4 # Number of SP units (default=1)
-gpgpu_num_dp_units                     4 # Number of DP units (default=0)
-gpgpu_num_int_units                    4 # Number of INT units (default=0)
-gpgpu_num_sfu_units                    4 # Number of SF units (default=1)
-gpgpu_num_tensor_core_units                    0 # Number of tensor_core units (default=1)
-gpgpu_num_mem_units                    1 # Number if ldst units (default=1) WARNING: not hooked up to anything
-gpgpu_scheduler                      gto # Scheduler configuration: < lrr | gto | two_level_active > If two_level_active:<num_active_warps>:<inner_prioritization>:<outer_prioritization>For complete list of prioritization values see shader.h enum scheduler_prioritization_typeDefault: gto
-gpgpu_concurrent_kernel_sm                    0 # Support concurrent kernels on a SM (default = disabled)
-gpgpu_perfect_inst_const_cache                    1 # perfect inst and const cache mode, so all inst and const hits in the cache(default = disabled)
-gpgpu_inst_fetch_throughput                    4 # the number of fetched intruction per warp each cycle
-gpgpu_reg_file_port_throughput                    2 # the number ports of the register file
-specialized_unit_1         0,4,4,4,4,BRA # specialized unit config {<enabled>,<num_units>:<latency>:<initiation>,<ID_OC_SPEC>:<OC_EX_SPEC>,<NAME>}
-specialized_unit_2         0,4,4,4,4,BRA # specialized unit config {<enabled>,<num_units>:<latency>:<initiation>,<ID_OC_SPEC>:<OC_EX_SPEC>,<NAME>}
-specialized_unit_3         0,4,4,4,4,BRA # specialized unit config {<enabled>,<num_units>:<latency>:<initiation>,<ID_OC_SPEC>:<OC_EX_SPEC>,<NAME>}
-specialized_unit_4         0,4,4,4,4,BRA # specialized unit config {<enabled>,<num_units>:<latency>:<initiation>,<ID_OC_SPEC>:<OC_EX_SPEC>,<NAME>}
-specialized_unit_5         0,4,4,4,4,BRA # specialized unit config {<enabled>,<num_units>:<latency>:<initiation>,<ID_OC_SPEC>:<OC_EX_SPEC>,<NAME>}
-specialized_unit_6         0,4,4,4,4,BRA # specialized unit config {<enabled>,<num_units>:<latency>:<initiation>,<ID_OC_SPEC>:<OC_EX_SPEC>,<NAME>}
-specialized_unit_7         0,4,4,4,4,BRA # specialized unit config {<enabled>,<num_units>:<latency>:<initiation>,<ID_OC_SPEC>:<OC_EX_SPEC>,<NAME>}
-specialized_unit_8         0,4,4,4,4,BRA # specialized unit config {<enabled>,<num_units>:<latency>:<initiation>,<ID_OC_SPEC>:<OC_EX_SPEC>,<NAME>}
-gpgpu_perf_sim_memcpy                    1 # Fill the L2 cache on memcpy
-gpgpu_simple_dram_model                    0 # simple_dram_model with fixed latency and BW
-gpgpu_dram_scheduler                    1 # 0 = fifo, 1 = FR-FCFS (defaul)
-gpgpu_dram_partition_queues          64:64:64:64 # i2$:$2d:d2$:$2i
-l2_ideal                               0 # Use a ideal L2 cache that always hit
-gpgpu_cache:dl2     S:32:128:24,L:B:m:L:P,A:192:4,32:0,32 # unified banked L2 data cache config  {<nsets>:<bsize>:<assoc>,<rep>:<wr>:<alloc>:<wr_alloc>,<mshr>:<N>:<merge>,<mq>}
-gpgpu_cache:dl2_texture_only                    0 # L2 cache used for texture only
-gpgpu_n_mem                           32 # number of memory modules (e.g. memory controllers) in gpu
-gpgpu_n_sub_partition_per_mchannel                    2 # number of memory subpartition in each memory module
-gpgpu_n_mem_per_ctrlr                    1 # number of memory chips per memory controller
-gpgpu_memlatency_stat                   14 # track and display latency statistics 0x2 enables MC, 0x4 enables queue logs
-gpgpu_frfcfs_dram_sched_queue_size                   64 # 0 = unlimited (default); # entries per chip
-gpgpu_dram_return_queue_size                  192 # 0 = unlimited (default); # entries per chip
-gpgpu_dram_buswidth                   16 # default = 4 bytes (8 bytes per cycle at DDR)
-gpgpu_dram_burst_length                    2 # Burst length of each DRAM request (default = 4 data bus cycle)
-dram_data_command_freq_ratio                    2 # Frequency ratio between DRAM data bus and command bus (default = 2 times, i.e. DDR)
-gpgpu_dram_timing_opt nbk=16:CCD=1:RRD=4:RCD=14:RAS=33:RP=14:RC=47: CL=14:WL=2:CDLR=3:WR=12:nbkgrp=4:CCDL=2:RTPL=4 # DRAM timing parameters = {nbk:tCCD:tRRD:tRCD:tRAS:tRP:tRC:CL:WL:tCDLR:tWR:nbkgrp:tCCDL:tRTPL}
-gpgpu_l2_rop_latency                  160 # ROP queue latency (default 85)
-dram_latency                         100 # DRAM latency (default 30)
-dram_dual_bus_interface                    1 # dual_bus_interface (default = 0) 
-dram_bnk_indexing_policy                    0 # dram_bnk_indexing_policy (0 = normal indexing, 1 = Xoring with the higher bits) (Default = 0)
-dram_bnkgrp_indexing_policy                    1 # dram_bnkgrp_indexing_policy (0 = take higher bits, 1 = take lower bits) (Default = 0)
-dram_seperate_write_queue_enable                    0 # Seperate_Write_Queue_Enable
-dram_write_queue_size             32:28:16 # Write_Queue_Size
-dram_elimnate_rw_turnaround                    0 # elimnate_rw_turnaround i.e set tWTR and tRTW = 0
-icnt_flit_size                        40 # icnt_flit_size
-gpgpu_mem_addr_mapping dramid@8;00000000.00000000.00000000.00000000.0000RRRR.RRRRRRRR.RBBBCCCB.CCCSSSSS # mapping memory address to dram model {dramid@<start bit>;<memory address map>}
-gpgpu_mem_addr_test                    0 # run sweep test to check address mapping for aliased address
-gpgpu_mem_address_mask                    1 # 0 = old addressing mask, 1 = new addressing mask, 2 = new add. mask + flipped bank sel and chip sel bits
-gpgpu_memory_partition_indexing                    2 # 0 = no indexing, 1 = bitwise xoring, 2 = IPoly, 3 = custom indexing
-gpuwattch_xml_file         gpuwattch.xml # GPUWattch XML file
-power_simulation_enabled                    0 # Turn on power simulator (1=On, 0=Off)
-power_per_cycle_dump                    0 # Dump detailed power output each cycle
-power_trace_enabled                    0 # produce a file for the power trace (1=On, 0=Off)
-power_trace_zlevel                     6 # Compression level of the power trace output log (0=no comp, 9=highest)
-steady_power_levels_enabled                    0 # produce a file for the steady power levels (1=On, 0=Off)
-steady_state_definition                  8:4 # allowed deviation:number of samples
-gpgpu_max_cycle                        0 # terminates gpu simulation early (0 = no limit)
-gpgpu_max_insn                         0 # terminates gpu simulation early (0 = no limit)
-gpgpu_max_cta                          0 # terminates gpu simulation early (0 = no limit)
-gpgpu_max_completed_cta                    0 # terminates gpu simulation early (0 = no limit)
-gpgpu_runtime_stat                   500 # display runtime statistics such as dram utilization {<freq>:<flag>}
-liveness_message_freq                    1 # Minimum number of seconds between simulation liveness messages (0 = always print)
-gpgpu_compute_capability_major                    7 # Major compute capability version number
-gpgpu_compute_capability_minor                    0 # Minor compute capability version number
-gpgpu_flush_l1_cache                    1 # Flush L1 cache at the end of each kernel call
-gpgpu_flush_l2_cache                    0 # Flush L2 cache at the end of each kernel call
-gpgpu_deadlock_detect                    1 # Stop the simulation at deadlock (1=on (default), 0=off)
-gpgpu_ptx_instruction_classification                    0 # if enabled will classify ptx instruction types per kernel (Max 255 kernels now)
-gpgpu_ptx_sim_mode                     0 # Select between Performance (default) or Functional simulation (1)
-gpgpu_clock_domains 1200.0:1200.0:1200.0:1000.0 # Clock Domain Frequencies in MhZ {<Core Clock>:<ICNT Clock>:<L2 Clock>:<DRAM Clock>}
-gpgpu_max_concurrent_kernel                    8 # maximum kernels that can run concurrently on GPU
-gpgpu_cflog_interval                    0 # Interval between each snapshot in control flow logger
-visualizer_enabled                     0 # Turn on visualizer output (1=On, 0=Off)
-visualizer_outputfile                 NULL # Specifies the output log file for visualizer
-visualizer_zlevel                      6 # Compression level of the visualizer output log (0=no comp, 9=highest)
-gpgpu_stack_size_limit                 1024 # GPU thread stack size
-gpgpu_heap_size_limit              8388608 # GPU malloc heap size167485dbc2c2349dc977844a3ce42fc9  /mnt/users/ssd1/homes/akkamath/gpgpu-sim_distribution/precompiled_bin/sgemm
Extracting PTX file and ptxas options    1: sgemm.1.sm_52.ptx -arch=sm_52
 
-gpgpu_runtime_sync_depth_limit                    2 # GPU device runtime synchronize depth
-gpgpu_runtime_pending_launch_count_limit                 2048 # GPU device runtime pending launch count
-trace_enabled                          0 # Turn on traces
-trace_components                    none # comma seperated list of traces to enable. Complete list found in trace_streams.tup. Default none
-trace_sampling_core                    0 # The core which is printed using CORE_DPRINTF. Default 0
-trace_sampling_memory_partition                   -1 # The memory partition which is printed using MEMPART_DPRINTF. Default -1 (i.e. all)
-enable_ptx_file_line_stats                    1 # Turn on PTX source line statistic profiling. (1 = On)
-ptx_line_stats_filename gpgpu_inst_stats.txt # Output file for PTX source line statistics.
-gpgpu_kernel_launch_latency                 5000 # Kernel launch latency in cycles. Default: 0
-gpgpu_cdp_enabled                      0 # Turn on CDP
-gpgpu_TB_launch_latency                    0 # thread block launch latency in cycles. Default: 0
DRAM Timing Options:
nbk                                    16 # number of banks
CCD                                     1 # column to column delay
RRD                                     4 # minimal delay between activation of rows in different banks
RCD                                    14 # row to column delay
RAS                                    33 # time needed to activate row
RP                                     14 # time needed to precharge (deactivate) row
RC                                     47 # row cycle time
CDLR                                    3 # switching from write to read (changes tWTR)
WR                                     12 # last data-in to row precharge
CL                                     14 # CAS latency
WL                                      2 # Write latency
nbkgrp                                  4 # number of bank groups
CCDL                                    2 # column to column delay between accesses to different bank groups
RTPL                                    4 # read to precharge delay between accesses to different bank groups
Total number of memory sub partition = 64
addr_dec_mask[CHIP]  = 0000000000001f00 	high:13 low:8
addr_dec_mask[BK]    = 00000000000e2000 	high:20 low:13
addr_dec_mask[ROW]   = 00000001fff00000 	high:33 low:20
addr_dec_mask[COL]   = 000000000001c0ff 	high:17 low:0
addr_dec_mask[BURST] = 000000000000001f 	high:5 low:0
sub_partition_id_mask = 0000000000002000
GPGPU-Sim uArch: clock freqs: 1200000000.000000:1200000000.000000:1200000000.000000:1000000000.000000
GPGPU-Sim uArch: clock periods: 0.00000000083333333333:0.00000000083333333333:0.00000000083333333333:0.00000000100000000000
*** Initializing Memory Statistics ***
GPGPU-Sim uArch: performance model initialization complete.
self exe links to: /mnt/users/ssd1/homes/akkamath/gpgpu-sim_distribution/precompiled_bin/sgemm
self exe links to: /mnt/users/ssd1/homes/akkamath/gpgpu-sim_distribution/precompiled_bin/sgemm
11.0
GPGPU-Sim PTX: __cudaRegisterFatBinary, fat_cubin_handle = 1, filename=default
self exe links to: /mnt/users/ssd1/homes/akkamath/gpgpu-sim_distribution/precompiled_bin/sgemm
Running md5sum using "md5sum /mnt/users/ssd1/homes/akkamath/gpgpu-sim_distribution/precompiled_bin/sgemm "
self exe links to: /mnt/users/ssd1/homes/akkamath/gpgpu-sim_distribution/precompiled_bin/sgemm
Extracting specific PTX file named sgemm.1.sm_52.ptx 
GPGPU-Sim PTX: __cudaRegisterFunction _ZN7cutlass6KernelINS_4gemm6kernel4GemmINS1_11threadblock12MmaPipelinedINS1_9GemmShapeILi128ELi128ELi8EEENS_9transform11threadblock22PredicatedTileIteratorINS_11MatrixShapeILi128ELi8EEEfNS_6layout8RowMajorELi1ENS8_30PitchLinearStripminedThreadMapINS_16PitchLinearShapeILi8ELi128EEELi256ELi1EEELi1EEENS9_19RegularTileIteratorISC_fNSD_11ColumnMajorELi1ENS8_33TransposePitchLinearThreadMapSimtISI_EELi4EEENSA_INSB_ILi8ELi128EEEfSE_Li0ENSF_INSG_ILi128ELi8EEELi256ELi1EEELi1EEENSK_ISP_fSE_Li0ESR_Li4EEEfSE_NS4_9MmaPolicyINS1_4warp7MmaSimtINS6_ILi32ELi64ELi8EEEfSL_fSE_fSE_NSV_13MmaSimtPolicyINSB_ILi4ELi8EEENSD_19RowMajorInterleavedILi2EEENS6_ILi4ELi4ELi1EEEEELi1ELNS_16ComplexTransformE0ELS14_0EbEENSB_ILi4ELi0EEENSB_ILi0ELi0EEELi1EEENS_21NumericArrayConverterIffLi4ELNS_15FloatRoundStyleE2EEES1B_bEENS_8epilogue11threadblock8EpilogueIS7_S15_Li1ENS1E_22PredicatedTileIteratorINS1E_26OutputTileOptimalThreadMapINS1E_15OutputTileShapeILi128ELi1ELi4ELi4ELi1EEENS1I_ILi1ELi4ELi2ELi1ELi8EEELi256ELi1ELi32EEEfLb0EEENS1D_4warp20FragmentIteratorSimtISX_NS1_6thread3MmaINS6_ILi8ELi8ELi1EEEfSL_fSE_fSE_NS_4arch13OpMultiplyAddEbEESE_S13_EENS1N_16TileIteratorSimtISX_S1U_fSE_S13_EENS1E_18SharedLoadIteratorINS1L_18CompactedThreadMapEfLi4EEENS1D_6thread17LinearCombinationIfLi1EffLNS21_9ScaleType4KindE0ELS1A_2EEENSB_ILi0ELi17EEELi1ELi1EEENS4_30GemmIdentityThreadblockSwizzleILi1EEELb0EEEEEvNT_6ParamsE : hostFun 0x0x4025b0, fat_cubin_handle = 1
GPGPU-Sim PTX: Parsing sgemm.1.sm_52.ptx
GPGPU-Sim PTX: allocating shared region for "_ZN7cutlass17SharedStorageBaseE" from 0x0 to 0x0 (shared memory space)
GPGPU-Sim PTX: Warning -- ignoring pragma 'nounroll'
GPGPU-Sim PTX: instruction assembly for function '_ZN7cutlass6KernelINS_4gemm6kernel4GemmINS1_11threadblock12MmaPipelinedINS1_9GemmShapeILi128ELi128ELi8EEENS_9transform11threadblock22PredicatedTileIteratorINS_11MatrixShapeILi128ELi8EEEfNS_6layout8RowMajorELi1ENS8_30PitchLinearStripminedThreadMapINS_16PitchLinearShapeILi8ELi128EEELi256ELi1EEELi1EEENS9_19RegularTileIteratorISC_fNSD_11ColumnMajorELi1ENS8_33TransposePitchLinearThreadMapSimtISI_EELi4EEENSA_INSB_ILi8ELi128EEEfSE_Li0ENSF_INSG_ILi128ELi8EEELi256ELi1EEELi1EEENSK_ISP_fSE_Li0ESR_Li4EEEfSE_NS4_9MmaPolicyINS1_4warp7MmaSimtINS6_ILi32ELi64ELi8EEEfSL_fSE_fSE_NSV_13MmaSimtPolicyINSB_ILi4ELi8EEENSD_19RowMajorInterleavedILi2EEENS6_ILi4ELi4ELi1EEEEELi1ELNS_16ComplexTransformE0ELS14_0EbEENSB_ILi4ELi0EEENSB_ILi0ELi0EEELi1EEENS_21NumericArrayConverterIffLi4ELNS_15FloatRoundStyleE2EEES1B_bEENS_8epilogue11threadblock8EpilogueIS7_S15_Li1ENS1E_22PredicatedTileIteratorINS1E_26OutputTileOptimalThreadMapINS1E_15OutputTileShapeILi128ELi1ELi4ELi4ELi1EEENS1I_ILi1ELi4ELi2ELi1ELi8EEELi256ELi1ELi32EEEfLb0EEENS1D_4warp20FragmentIteratorSimtISX_NS1_6thread3MmaINS6_ILi8ELi8ELi1EEEfSL_fSE_fSE_NS_4arch13OpMultiplyAddEbEESE_S13_EENS1N_16TileIteratorSimtISX_S1U_fSE_S13_EENS1E_18SharedLoadIteratorINS1L_18CompactedThreadMapEfLi4EEENS1D_6thread17LinearCombinationIfLi1EffLNS21_9ScaleType4KindE0ELS1A_2EEENSB_ILi0ELi17EEELi1ELi1EEENS4_30GemmIdentityThreadblockSwizzleILi1EEELb0EEEEEvNT_6ParamsE'...   done.
GPGPU-Sim PTX: finished parsing EMBEDDED .ptx file sgemm.1.sm_52.ptx
GPGPU-Sim PTX: loading globals with explicit initializers... 
GPGPU-Sim PTX: finished loading globals (0 bytes total).
GPGPU-Sim PTX: loading constants with explicit initializers...  done.
GPGPU-Sim PTX: Loading PTXInfo from sgemm.1.sm_52.ptx
GPGPU-Sim PTX: Kernel '_ZN7cutlass6KernelINS_4gemm6kernel4GemmINS1_11threadblock12MmaPipelinedINS1_9GemmShapeILi128ELi128ELi8EEENS_9transform11threadblock22PredicatedTileIteratorINS_11MatrixShapeILi128ELi8EEEfNS_6layout8RowMajorELi1ENS8_30PitchLinearStripminedThreadMapINS_16PitchLinearShapeILi8ELi128EEELi256ELi1EEELi1EEENS9_19RegularTileIteratorISC_fNSD_11ColumnMajorELi1ENS8_33TransposePitchLinearThreadMapSimtISI_EELi4EEENSA_INSB_ILi8ELi128EEEfSE_Li0ENSF_INSG_ILi128ELi8EEELi256ELi1EEELi1EEENSK_ISP_fSE_Li0ESR_Li4EEEfSE_NS4_9MmaPolicyINS1_4warp7MmaSimtINS6_ILi32ELi64ELi8EEEfSL_fSE_fSE_NSV_13MmaSimtPolicyINSB_ILi4ELi8EEENSD_19RowMajorInterleavedILi2EEENS6_ILi4ELi4ELi1EEEEELi1ELNS_16ComplexTransformE0ELS14_0EbEENSB_ILi4ELi0EEENSB_ILi0ELi0EEELi1EEENS_21NumericArrayConverterIffLi4ELNS_15FloatRoundStyleE2EEES1B_bEENS_8epilogue11threadblock8EpilogueIS7_S15_Li1ENS1E_22PredicatedTileIteratorINS1E_26OutputTileOptimalThreadMapINS1E_15OutputTileShapeILi128ELi1ELi4ELi4ELi1EEENS1I_ILi1ELi4ELi2ELi1ELi8EEELi256ELi1ELi32EEEfLb0EEENS1D_4warp20FragmentIteratorSimtISX_NS1_6thread3MmaINS6_ILi8ELi8ELi1EEEfSL_fSE_fSE_NS_4arch13OpMultiplyAddEbEESE_S13_EENS1N_16TileIteratorSimtISX_S1U_fSE_S13_EENS1E_18SharedLoadIteratorINS1L_18CompactedThreadMapEfLi4EEENS1D_6thread17LinearCombinationIfLi1EffLNS21_9ScaleType4KindE0ELS1A_2EEENSB_ILi0ELi17EEELi1ELi1EEENS4_30GemmIdentityThreadblockSwizzleILi1EEELb0EEEEEvNT_6ParamsE' : regs=168, lmem=0, smem=0, cmem=648
Square matrix size: 2048
GPGPU-Sim PTX: Setting up arguments for 328 bytes starting at 0x7ffed162d4a0..

GPGPU-Sim PTX: cudaLaunch for 0x0x4025b0 (mode=performance simulation) on stream 0
GPGPU-Sim PTX: finding reconvergence points for '_ZN7cutlass6KernelINS_4gemm6kernel4GemmINS1_11threadblock12MmaPipelinedINS1_9GemmShapeILi128ELi128ELi8EEENS_9transform11threadblock22PredicatedTileIteratorINS_11MatrixShapeILi128ELi8EEEfNS_6layout8RowMajorELi1ENS8_30PitchLinearStripminedThreadMapINS_16PitchLinearShapeILi8ELi128EEELi256ELi1EEELi1EEENS9_19RegularTileIteratorISC_fNSD_11ColumnMajorELi1ENS8_33TransposePitchLinearThreadMapSimtISI_EELi4EEENSA_INSB_ILi8ELi128EEEfSE_Li0ENSF_INSG_ILi128ELi8EEELi256ELi1EEELi1EEENSK_ISP_fSE_Li0ESR_Li4EEEfSE_NS4_9MmaPolicyINS1_4warp7MmaSimtINS6_ILi32ELi64ELi8EEEfSL_fSE_fSE_NSV_13MmaSimtPolicyINSB_ILi4ELi8EEENSD_19RowMajorInterleavedILi2EEENS6_ILi4ELi4ELi1EEEEELi1ELNS_16ComplexTransformE0ELS14_0EbEENSB_ILi4ELi0EEENSB_ILi0ELi0EEELi1EEENS_21NumericArrayConverterIffLi4ELNS_15FloatRoundStyleE2EEES1B_bEENS_8epilogue11threadblock8EpilogueIS7_S15_Li1ENS1E_22PredicatedTileIteratorINS1E_26OutputTileOptimalThreadMapINS1E_15OutputTileShapeILi128ELi1ELi4ELi4ELi1EEENS1I_ILi1ELi4ELi2ELi1ELi8EEELi256ELi1ELi32EEEfLb0EEENS1D_4warp20FragmentIteratorSimtISX_NS1_6thread3MmaINS6_ILi8ELi8ELi1EEEfSL_fSE_fSE_NS_4arch13OpMultiplyAddEbEESE_S13_EENS1N_16TileIteratorSimtISX_S1U_fSE_S13_EENS1E_18SharedLoadIteratorINS1L_18CompactedThreadMapEfLi4EEENS1D_6thread17LinearCombinationIfLi1EffLNS21_9ScaleType4KindE0ELS1A_2EEENSB_ILi0ELi17EEELi1ELi1EEENS4_30GemmIdentityThreadblockSwizzleILi1EEELb0EEEEEvNT_6ParamsE'...
GPGPU-Sim PTX: Finding dominators for '_ZN7cutlass6KernelINS_4gemm6kernel4GemmINS1_11threadblock12MmaPipelinedINS1_9GemmShapeILi128ELi128ELi8EEENS_9transform11threadblock22PredicatedTileIteratorINS_11MatrixShapeILi128ELi8EEEfNS_6layout8RowMajorELi1ENS8_30PitchLinearStripminedThreadMapINS_16PitchLinearShapeILi8ELi128EEELi256ELi1EEELi1EEENS9_19RegularTileIteratorISC_fNSD_11ColumnMajorELi1ENS8_33TransposePitchLinearThreadMapSimtISI_EELi4EEENSA_INSB_ILi8ELi128EEEfSE_Li0ENSF_INSG_ILi128ELi8EEELi256ELi1EEELi1EEENSK_ISP_fSE_Li0ESR_Li4EEEfSE_NS4_9MmaPolicyINS1_4warp7MmaSimtINS6_ILi32ELi64ELi8EEEfSL_fSE_fSE_NSV_13MmaSimtPolicyINSB_ILi4ELi8EEENSD_19RowMajorInterleavedILi2EEENS6_ILi4ELi4ELi1EEEEELi1ELNS_16ComplexTransformE0ELS14_0EbEENSB_ILi4ELi0EEENSB_ILi0ELi0EEELi1EEENS_21NumericArrayConverterIffLi4ELNS_15FloatRoundStyleE2EEES1B_bEENS_8epilogue11threadblock8EpilogueIS7_S15_Li1ENS1E_22PredicatedTileIteratorINS1E_26OutputTileOptimalThreadMapINS1E_15OutputTileShapeILi128ELi1ELi4ELi4ELi1EEENS1I_ILi1ELi4ELi2ELi1ELi8EEELi256ELi1ELi32EEEfLb0EEENS1D_4warp20FragmentIteratorSimtISX_NS1_6thread3MmaINS6_ILi8ELi8ELi1EEEfSL_fSE_fSE_NS_4arch13OpMultiplyAddEbEESE_S13_EENS1N_16TileIteratorSimtISX_S1U_fSE_S13_EENS1E_18SharedLoadIteratorINS1L_18CompactedThreadMapEfLi4EEENS1D_6thread17LinearCombinationIfLi1EffLNS21_9ScaleType4KindE0ELS1A_2EEENSB_ILi0ELi17EEELi1ELi1EEENS4_30GemmIdentityThreadblockSwizzleILi1EEELb0EEEEEvNT_6ParamsE'...
GPGPU-Sim PTX: Finding immediate dominators for '_ZN7cutlass6KernelINS_4gemm6kernel4GemmINS1_11threadblock12MmaPipelinedINS1_9GemmShapeILi128ELi128ELi8EEENS_9transform11threadblock22PredicatedTileIteratorINS_11MatrixShapeILi128ELi8EEEfNS_6layout8RowMajorELi1ENS8_30PitchLinearStripminedThreadMapINS_16PitchLinearShapeILi8ELi128EEELi256ELi1EEELi1EEENS9_19RegularTileIteratorISC_fNSD_11ColumnMajorELi1ENS8_33TransposePitchLinearThreadMapSimtISI_EELi4EEENSA_INSB_ILi8ELi128EEEfSE_Li0ENSF_INSG_ILi128ELi8EEELi256ELi1EEELi1EEENSK_ISP_fSE_Li0ESR_Li4EEEfSE_NS4_9MmaPolicyINS1_4warp7MmaSimtINS6_ILi32ELi64ELi8EEEfSL_fSE_fSE_NSV_13MmaSimtPolicyINSB_ILi4ELi8EEENSD_19RowMajorInterleavedILi2EEENS6_ILi4ELi4ELi1EEEEELi1ELNS_16ComplexTransformE0ELS14_0EbEENSB_ILi4ELi0EEENSB_ILi0ELi0EEELi1EEENS_21NumericArrayConverterIffLi4ELNS_15FloatRoundStyleE2EEES1B_bEENS_8epilogue11threadblock8EpilogueIS7_S15_Li1ENS1E_22PredicatedTileIteratorINS1E_26OutputTileOptimalThreadMapINS1E_15OutputTileShapeILi128ELi1ELi4ELi4ELi1EEENS1I_ILi1ELi4ELi2ELi1ELi8EEELi256ELi1ELi32EEEfLb0EEENS1D_4warp20FragmentIteratorSimtISX_NS1_6thread3MmaINS6_ILi8ELi8ELi1EEEfSL_fSE_fSE_NS_4arch13OpMultiplyAddEbEESE_S13_EENS1N_16TileIteratorSimtISX_S1U_fSE_S13_EENS1E_18SharedLoadIteratorINS1L_18CompactedThreadMapEfLi4EEENS1D_6thread17LinearCombinationIfLi1EffLNS21_9ScaleType4KindE0ELS1A_2EEENSB_ILi0ELi17EEELi1ELi1EEENS4_30GemmIdentityThreadblockSwizzleILi1EEELb0EEEEEvNT_6ParamsE'...
GPGPU-Sim PTX: Finding postdominators for '_ZN7cutlass6KernelINS_4gemm6kernel4GemmINS1_11threadblock12MmaPipelinedINS1_9GemmShapeILi128ELi128ELi8EEENS_9transform11threadblock22PredicatedTileIteratorINS_11MatrixShapeILi128ELi8EEEfNS_6layout8RowMajorELi1ENS8_30PitchLinearStripminedThreadMapINS_16PitchLinearShapeILi8ELi128EEELi256ELi1EEELi1EEENS9_19RegularTileIteratorISC_fNSD_11ColumnMajorELi1ENS8_33TransposePitchLinearThreadMapSimtISI_EELi4EEENSA_INSB_ILi8ELi128EEEfSE_Li0ENSF_INSG_ILi128ELi8EEELi256ELi1EEELi1EEENSK_ISP_fSE_Li0ESR_Li4EEEfSE_NS4_9MmaPolicyINS1_4warp7MmaSimtINS6_ILi32ELi64ELi8EEEfSL_fSE_fSE_NSV_13MmaSimtPolicyINSB_ILi4ELi8EEENSD_19RowMajorInterleavedILi2EEENS6_ILi4ELi4ELi1EEEEELi1ELNS_16ComplexTransformE0ELS14_0EbEENSB_ILi4ELi0EEENSB_ILi0ELi0EEELi1EEENS_21NumericArrayConverterIffLi4ELNS_15FloatRoundStyleE2EEES1B_bEENS_8epilogue11threadblock8EpilogueIS7_S15_Li1ENS1E_22PredicatedTileIteratorINS1E_26OutputTileOptimalThreadMapINS1E_15OutputTileShapeILi128ELi1ELi4ELi4ELi1EEENS1I_ILi1ELi4ELi2ELi1ELi8EEELi256ELi1ELi32EEEfLb0EEENS1D_4warp20FragmentIteratorSimtISX_NS1_6thread3MmaINS6_ILi8ELi8ELi1EEEfSL_fSE_fSE_NS_4arch13OpMultiplyAddEbEESE_S13_EENS1N_16TileIteratorSimtISX_S1U_fSE_S13_EENS1E_18SharedLoadIteratorINS1L_18CompactedThreadMapEfLi4EEENS1D_6thread17LinearCombinationIfLi1EffLNS21_9ScaleType4KindE0ELS1A_2EEENSB_ILi0ELi17EEELi1ELi1EEENS4_30GemmIdentityThreadblockSwizzleILi1EEELb0EEEEEvNT_6ParamsE'...
GPGPU-Sim PTX: Finding immediate postdominators for '_ZN7cutlass6KernelINS_4gemm6kernel4GemmINS1_11threadblock12MmaPipelinedINS1_9GemmShapeILi128ELi128ELi8EEENS_9transform11threadblock22PredicatedTileIteratorINS_11MatrixShapeILi128ELi8EEEfNS_6layout8RowMajorELi1ENS8_30PitchLinearStripminedThreadMapINS_16PitchLinearShapeILi8ELi128EEELi256ELi1EEELi1EEENS9_19RegularTileIteratorISC_fNSD_11ColumnMajorELi1ENS8_33TransposePitchLinearThreadMapSimtISI_EELi4EEENSA_INSB_ILi8ELi128EEEfSE_Li0ENSF_INSG_ILi128ELi8EEELi256ELi1EEELi1EEENSK_ISP_fSE_Li0ESR_Li4EEEfSE_NS4_9MmaPolicyINS1_4warp7MmaSimtINS6_ILi32ELi64ELi8EEEfSL_fSE_fSE_NSV_13MmaSimtPolicyINSB_ILi4ELi8EEENSD_19RowMajorInterleavedILi2EEENS6_ILi4ELi4ELi1EEEEELi1ELNS_16ComplexTransformE0ELS14_0EbEENSB_ILi4ELi0EEENSB_ILi0ELi0EEELi1EEENS_21NumericArrayConverterIffLi4ELNS_15FloatRoundStyleE2EEES1B_bEENS_8epilogue11threadblock8EpilogueIS7_S15_Li1ENS1E_22PredicatedTileIteratorINS1E_26OutputTileOptimalThreadMapINS1E_15OutputTileShapeILi128ELi1ELi4ELi4ELi1EEENS1I_ILi1ELi4ELi2ELi1ELi8EEELi256ELi1ELi32EEEfLb0EEENS1D_4warp20FragmentIteratorSimtISX_NS1_6thread3MmaINS6_ILi8ELi8ELi1EEEfSL_fSE_fSE_NS_4arch13OpMultiplyAddEbEESE_S13_EENS1N_16TileIteratorSimtISX_S1U_fSE_S13_EENS1E_18SharedLoadIteratorINS1L_18CompactedThreadMapEfLi4EEENS1D_6thread17LinearCombinationIfLi1EffLNS21_9ScaleType4KindE0ELS1A_2EEENSB_ILi0ELi17EEELi1ELi1EEENS4_30GemmIdentityThreadblockSwizzleILi1EEELb0EEEEEvNT_6ParamsE'...
GPGPU-Sim PTX: pre-decoding instructions for '_ZN7cutlass6KernelINS_4gemm6kernel4GemmINS1_11threadblock12MmaPipelinedINS1_9GemmShapeILi128ELi128ELi8EEENS_9transform11threadblock22PredicatedTileIteratorINS_11MatrixShapeILi128ELi8EEEfNS_6layout8RowMajorELi1ENS8_30PitchLinearStripminedThreadMapINS_16PitchLinearShapeILi8ELi128EEELi256ELi1EEELi1EEENS9_19RegularTileIteratorISC_fNSD_11ColumnMajorELi1ENS8_33TransposePitchLinearThreadMapSimtISI_EELi4EEENSA_INSB_ILi8ELi128EEEfSE_Li0ENSF_INSG_ILi128ELi8EEELi256ELi1EEELi1EEENSK_ISP_fSE_Li0ESR_Li4EEEfSE_NS4_9MmaPolicyINS1_4warp7MmaSimtINS6_ILi32ELi64ELi8EEEfSL_fSE_fSE_NSV_13MmaSimtPolicyINSB_ILi4ELi8EEENSD_19RowMajorInterleavedILi2EEENS6_ILi4ELi4ELi1EEEEELi1ELNS_16ComplexTransformE0ELS14_0EbEENSB_ILi4ELi0EEENSB_ILi0ELi0EEELi1EEENS_21NumericArrayConverterIffLi4ELNS_15FloatRoundStyleE2EEES1B_bEENS_8epilogue11threadblock8EpilogueIS7_S15_Li1ENS1E_22PredicatedTileIteratorINS1E_26OutputTileOptimalThreadMapINS1E_15OutputTileShapeILi128ELi1ELi4ELi4ELi1EEENS1I_ILi1ELi4ELi2ELi1ELi8EEELi256ELi1ELi32EEEfLb0EEENS1D_4warp20FragmentIteratorSimtISX_NS1_6thread3MmaINS6_ILi8ELi8ELi1EEEfSL_fSE_fSE_NS_4arch13OpMultiplyAddEbEESE_S13_EENS1N_16TileIteratorSimtISX_S1U_fSE_S13_EENS1E_18SharedLoadIteratorINS1L_18CompactedThreadMapEfLi4EEENS1D_6thread17LinearCombinationIfLi1EffLNS21_9ScaleType4KindE0ELS1A_2EEENSB_ILi0ELi17EEELi1ELi1EEENS4_30GemmIdentityThreadblockSwizzleILi1EEELb0EEEEEvNT_6ParamsE'...
GPGPU-Sim PTX: reconvergence points for _ZN7cutlass6KernelINS_4gemm6kernel4GemmINS1_11threadblock12MmaPipelinedINS1_9GemmShapeILi128ELi128ELi8EEENS_9transform11threadblock22PredicatedTileIteratorINS_11MatrixShapeILi128ELi8EEEfNS_6layout8RowMajorELi1ENS8_30PitchLinearStripminedThreadMapINS_16PitchLinearShapeILi8ELi128EEELi256ELi1EEELi1EEENS9_19RegularTileIteratorISC_fNSD_11ColumnMajorELi1ENS8_33TransposePitchLinearThreadMapSimtISI_EELi4EEENSA_INSB_ILi8ELi128EEEfSE_Li0ENSF_INSG_ILi128ELi8EEELi256ELi1EEELi1EEENSK_ISP_fSE_Li0ESR_Li4EEEfSE_NS4_9MmaPolicyINS1_4warp7MmaSimtINS6_ILi32ELi64ELi8EEEfSL_fSE_fSE_NSV_13MmaSimtPolicyINSB_ILi4ELi8EEENSD_19RowMajorInterleavedILi2EEENS6_ILi4ELi4ELi1EEEEELi1ELNS_16ComplexTransformE0ELS14_0EbEENSB_ILi4ELi0EEENSB_ILi0ELi0EEELi1EEENS_21NumericArrayConverterIffLi4ELNS_15FloatRoundStyleE2EEES1B_bEENS_8epilogue11threadblock8EpilogueIS7_S15_Li1ENS1E_22PredicatedTileIteratorINS1E_26OutputTileOptimalThreadMapINS1E_15OutputTileShapeILi128ELi1ELi4ELi4ELi1EEENS1I_ILi1ELi4ELi2ELi1ELi8EEELi256ELi1ELi32EEEfLb0EEENS1D_4warp20FragmentIteratorSimtISX_NS1_6thread3MmaINS6_ILi8ELi8ELi1EEEfSL_fSE_fSE_NS_4arch13OpMultiplyAddEbEESE_S13_EENS1N_16TileIteratorSimtISX_S1U_fSE_S13_EENS1E_18SharedLoadIteratorINS1L_18CompactedThreadMapEfLi4EEENS1D_6thread17LinearCombinationIfLi1EffLNS21_9ScaleType4KindE0ELS1A_2EEENSB_ILi0ELi17EEELi1ELi1EEENS4_30GemmIdentityThreadblockSwizzleILi1EEELb0EEEEEvNT_6ParamsE...
GPGPU-Sim PTX:  1 (potential) branch divergence @  PC=0x0b8 (sgemm.1.sm_52.ptx:50) @%p4 bra $L__BB0_14;
GPGPU-Sim PTX:    immediate post dominator      @  PC=0x5630 (sgemm.1.sm_52.ptx:4058) ret;
GPGPU-Sim PTX:  2 (potential) branch divergence @  PC=0x840 (sgemm.1.sm_52.ptx:340) @%p24 bra $L__BB0_7;
GPGPU-Sim PTX:    immediate post dominator      @  PC=0x2088 (sgemm.1.sm_52.ptx:1177) ld.param.u64 %rd306, [_ZN7cutlass6KernelINS_4gemm6kernel4GemmINS1_11threadblock12MmaPipelinedINS1_9GemmShapeILi128ELi128ELi8EEENS_9transform11threadblock22PredicatedTileIteratorINS_11MatrixShapeILi128ELi8EEEfNS_6layout8RowMajorELi1ENS8_30PitchLinearStripminedThreadMapINS_16PitchLinearShapeILi8ELi128EEELi256ELi1EEELi1EEENS9_19RegularTileIteratorISC_fNSD_11ColumnMajorELi1ENS8_33TransposePitchLinearThreadMapSimtISI_EELi4EEENSA_INSB_ILi8ELi128EEEfSE_Li0ENSF_INSG_ILi128ELi8EEELi256ELi1EEELi1EEENSK_ISP_fSE_Li0ESR_Li4EEEfSE_NS4_9MmaPolicyINS1_4warp7MmaSimtINS6_ILi32ELi64ELi8EEEfSL_fSE_fSE_NSV_13MmaSimtPolicyINSB_ILi4ELi8EEENSD_19RowMajorInterleavedILi2EEENS6_ILi4ELi4ELi1EEEEELi1ELNS_16ComplexTransformE0ELS14_0EbEENSB_ILi4ELi0EEENSB_ILi0ELi0EEELi1EEENS_21NumericArrayConverterIffLi4ELNS_15FloatRoundStyleE2EEES1B_bEENS_8epilogue11threadblock8EpilogueIS7_S15_Li1ENS1E_22PredicatedTileIteratorINS1E_26OutputTileOptimalThreadMapINS1E_15OutputTileShapeILi128ELi1ELi4ELi4ELi1EEENS1I_ILi1ELi
GPGPU-Sim PTX:  3 (potential) branch divergence @  PC=0x1d68 (sgemm.1.sm_52.ptx:1069) @%p26 bra $L__BB0_5;
GPGPU-Sim PTX:    immediate post dominator      @  PC=0x1dc0 (sgemm.1.sm_52.ptx:1086) setp.gt.s32 %p27, %r869, 2;
GPGPU-Sim PTX:  4 (potential) branch divergence @  PC=0x1d70 (sgemm.1.sm_52.ptx:1070) bra.uni $L__BB0_4;
GPGPU-Sim PTX:    immediate post dominator      @  PC=0x1da0 (sgemm.1.sm_52.ptx:1080) add.s32 %r878, %r897, -4752;
GPGPU-Sim PTX:  5 (potential) branch divergence @  PC=0x1d98 (sgemm.1.sm_52.ptx:1077) bra.uni $L__BB0_6;
GPGPU-Sim PTX:    immediate post dominator      @  PC=0x1dc0 (sgemm.1.sm_52.ptx:1086) setp.gt.s32 %p27, %r869, 2;
GPGPU-Sim PTX:  6 (potential) branch divergence @  PC=0x2080 (sgemm.1.sm_52.ptx:1174) @%p28 bra $L__BB0_3;
GPGPU-Sim PTX:    immediate post dominator      @  PC=0x2088 (sgemm.1.sm_52.ptx:1177) ld.param.u64 %rd306, [_ZN7cutlass6KernelINS_4gemm6kernel4GemmINS1_11threadblock12MmaPipelinedINS1_9GemmShapeILi128ELi128ELi8EEENS_9transform11threadblock22PredicatedTileIteratorINS_11MatrixShapeILi128ELi8EEEfNS_6layout8RowMajorELi1ENS8_30PitchLinearStripminedThreadMapINS_16PitchLinearShapeILi8ELi128EEELi256ELi1EEELi1EEENS9_19RegularTileIteratorISC_fNSD_11ColumnMajorELi1ENS8_33TransposePitchLinearThreadMapSimtISI_EELi4EEENSA_INSB_ILi8ELi128EEEfSE_Li0ENSF_INSG_ILi128ELi8EEELi256ELi1EEELi1EEENSK_ISP_fSE_Li0ESR_Li4EEEfSE_NS4_9MmaPolicyINS1_4warp7MmaSimtINS6_ILi32ELi64ELi8EEEfSL_fSE_fSE_NSV_13MmaSimtPolicyINSB_ILi4ELi8EEENSD_19RowMajorInterleavedILi2EEENS6_ILi4ELi4ELi1EEEEELi1ELNS_16ComplexTransformE0ELS14_0EbEENSB_ILi4ELi0EEENSB_ILi0ELi0EEELi1EEENS_21NumericArrayConverterIffLi4ELNS_15FloatRoundStyleE2EEES1B_bEENS_8epilogue11threadblock8EpilogueIS7_S15_Li1ENS1E_22PredicatedTileIteratorINS1E_26OutputTileOptimalThreadMapINS1E_15OutputTileShapeILi128ELi1ELi4ELi4ELi1EEENS1I_ILi1ELi
GPGPU-Sim PTX:  7 (potential) branch divergence @  PC=0x2098 (sgemm.1.sm_52.ptx:1179) @%p29 bra $L__BB0_9;
GPGPU-Sim PTX:    immediate post dominator      @  PC=0x20b8 (sgemm.1.sm_52.ptx:1186) ld.param.u64 %rd308, [_ZN7cutlass6KernelINS_4gemm6kernel4GemmINS1_11threadblock12MmaPipelinedINS1_9GemmShapeILi128ELi128ELi8EEENS_9transform11threadblock22PredicatedTileIteratorINS_11MatrixShapeILi128ELi8EEEfNS_6layout8RowMajorELi1ENS8_30PitchLinearStripminedThreadMapINS_16PitchLinearShapeILi8ELi128EEELi256ELi1EEELi1EEENS9_19RegularTileIteratorISC_fNSD_11ColumnMajorELi1ENS8_33TransposePitchLinearThreadMapSimtISI_EELi4EEENSA_INSB_ILi8ELi128EEEfSE_Li0ENSF_INSG_ILi128ELi8EEELi256ELi1EEELi1EEENSK_ISP_fSE_Li0ESR_Li4EEEfSE_NS4_9MmaPolicyINS1_4warp7MmaSimtINS6_ILi32ELi64ELi8EEEfSL_fSE_fSE_NSV_13MmaSimtPolicyINSB_ILi4ELi8EEENSD_19RowMajorInterleavedILi2EEENS6_ILi4ELi4ELi1EEEEELi1ELNS_16ComplexTransformE0ELS14_0EbEENSB_ILi4ELi0EEENSB_ILi0ELi0EEELi1EEENS_21NumericArrayConverterIffLi4ELNS_15FloatRoundStyleE2EEES1B_bEENS_8epilogue11threadblock8EpilogueIS7_S15_Li1ENS1E_22PredicatedTileIteratorINS1E_26OutputTileOptimalThreadMapINS1E_15OutputTileShapeILi128ELi1ELi4ELi4ELi1EEENS1I_ILi1ELi
GPGPU-Sim PTX:  8 (potential) branch divergence @  PC=0x20c8 (sgemm.1.sm_52.ptx:1188) @%p30 bra $L__BB0_11;
GPGPU-Sim PTX:    immediate post dominator      @  PC=0x20e8 (sgemm.1.sm_52.ptx:1195) mov.u32 %r868, %tid.x;
GPGPU-Sim PTX:  9 (potential) branch divergence @  PC=0x2840 (sgemm.1.sm_52.ptx:1430) @%p120 bra $L__BB0_13;
GPGPU-Sim PTX:    immediate post dominator      @  PC=0x5630 (sgemm.1.sm_52.ptx:4058) ret;
GPGPU-Sim PTX: 10 (potential) branch divergence @  PC=0x2848 (sgemm.1.sm_52.ptx:1431) bra.uni $L__BB0_12;
GPGPU-Sim PTX:    immediate post dominator      @  PC=0x3708 (sgemm.1.sm_52.ptx:2291) ld.param.u64 %rd320, [_ZN7cutlass6KernelINS_4gemm6kernel4GemmINS1_11threadblock12MmaPipelinedINS1_9GemmShapeILi128ELi128ELi8EEENS_9transform11threadblock22PredicatedTileIteratorINS_11MatrixShapeILi128ELi8EEEfNS_6layout8RowMajorELi1ENS8_30PitchLinearStripminedThreadMapINS_16PitchLinearShapeILi8ELi128EEELi256ELi1EEELi1EEENS9_19RegularTileIteratorISC_fNSD_11ColumnMajorELi1ENS8_33TransposePitchLinearThreadMapSimtISI_EELi4EEENSA_INSB_ILi8ELi128EEEfSE_Li0ENSF_INSG_ILi128ELi8EEELi256ELi1EEELi1EEENSK_ISP_fSE_Li0ESR_Li4EEEfSE_NS4_9MmaPolicyINS1_4warp7MmaSimtINS6_ILi32ELi64ELi8EEEfSL_fSE_fSE_NSV_13MmaSimtPolicyINSB_ILi4ELi8EEENSD_19RowMajorInterleavedILi2EEENS6_ILi4ELi4ELi1EEEEELi1ELNS_16ComplexTransformE0ELS14_0EbEENSB_ILi4ELi0EEENSB_ILi0ELi0EEELi1EEENS_21NumericArrayConverterIffLi4ELNS_15FloatRoundStyleE2EEES1B_bEENS_8epilogue11threadblock8EpilogueIS7_S15_Li1ENS1E_22PredicatedTileIteratorINS1E_26OutputTileOptimalThreadMapINS1E_15OutputTileShapeILi128ELi1ELi4ELi4ELi1EEENS1I_ILi1ELi
GPGPU-Sim PTX: 11 (potential) branch divergence @  PC=0x3700 (sgemm.1.sm_52.ptx:2288) bra.uni $L__BB0_14;
GPGPU-Sim PTX:    immediate post dominator      @  PC=0x5630 (sgemm.1.sm_52.ptx:4058) ret;
GPGPU-Sim PTX: ... end of reconvergence points for _ZN7cutlass6KernelINS_4gemm6kernel4GemmINS1_11threadblock12MmaPipelinedINS1_9GemmShapeILi128ELi128ELi8EEENS_9transform11threadblock22PredicatedTileIteratorINS_11MatrixShapeILi128ELi8EEEfNS_6layout8RowMajorELi1ENS8_30PitchLinearStripminedThreadMapINS_16PitchLinearShapeILi8ELi128EEELi256ELi1EEELi1EEENS9_19RegularTileIteratorISC_fNSD_11ColumnMajorELi1ENS8_33TransposePitchLinearThreadMapSimtISI_EELi4EEENSA_INSB_ILi8ELi128EEEfSE_Li0ENSF_INSG_ILi128ELi8EEELi256ELi1EEELi1EEENSK_ISP_fSE_Li0ESR_Li4EEEfSE_NS4_9MmaPolicyINS1_4warp7MmaSimtINS6_ILi32ELi64ELi8EEEfSL_fSE_fSE_NSV_13MmaSimtPolicyINSB_ILi4ELi8EEENSD_19RowMajorInterleavedILi2EEENS6_ILi4ELi4ELi1EEEEELi1ELNS_16ComplexTransformE0ELS14_0EbEENSB_ILi4ELi0EEENSB_ILi0ELi0EEELi1EEENS_21NumericArrayConverterIffLi4ELNS_15FloatRoundStyleE2EEES1B_bEENS_8epilogue11threadblock8EpilogueIS7_S15_Li1ENS1E_22PredicatedTileIteratorINS1E_26OutputTileOptimalThreadMapINS1E_15OutputTileShapeILi128ELi1ELi4ELi4ELi1EEENS1I_ILi1ELi4ELi2ELi1ELi8EEELi256ELi1ELi32EEEfLb0EEENS1D_4warp20FragmentIteratorSimtISX_NS1_6thread3MmaINS6_ILi8ELi8ELi1EEEfSL_fSE_fSE_NS_4arch13OpMultiplyAddEbEESE_S13_EENS1N_16TileIteratorSimtISX_S1U_fSE_S13_EENS1E_18SharedLoadIteratorINS1L_18CompactedThreadMapEfLi4EEENS1D_6thread17LinearCombinationIfLi1EffLNS21_9ScaleType4KindE0ELS1A_2EEENSB_ILi0ELi17EEELi1ELi1EEENS4_30GemmIdentityThreadblockSwizzleILi1EEELb0EEEEEvNT_6ParamsE
GPGPU-Sim PTX: ... done pre-decoding instructions for '_ZN7cutlass6KernelINS_4gemm6kernel4GemmINS1_11threadblock12MmaPipelinedINS1_9GemmShapeILi128ELi128ELi8EEENS_9transform11threadblock22PredicatedTileIteratorINS_11MatrixShapeILi128ELi8EEEfNS_6layout8RowMajorELi1ENS8_30PitchLinearStripminedThreadMapINS_16PitchLinearShapeILi8ELi128EEELi256ELi1EEELi1EEENS9_19RegularTileIteratorISC_fNSD_11ColumnMajorELi1ENS8_33TransposePitchLinearThreadMapSimtISI_EELi4EEENSA_INSB_ILi8ELi128EEEfSE_Li0ENSF_INSG_ILi128ELi8EEELi256ELi1EEELi1EEENSK_ISP_fSE_Li0ESR_Li4EEEfSE_NS4_9MmaPolicyINS1_4warp7MmaSimtINS6_ILi32ELi64ELi8EEEfSL_fSE_fSE_NSV_13MmaSimtPolicyINSB_ILi4ELi8EEENSD_19RowMajorInterleavedILi2EEENS6_ILi4ELi4ELi1EEEEELi1ELNS_16ComplexTransformE0ELS14_0EbEENSB_ILi4ELi0EEENSB_ILi0ELi0EEELi1EEENS_21NumericArrayConverterIffLi4ELNS_15FloatRoundStyleE2EEES1B_bEENS_8epilogue11threadblock8EpilogueIS7_S15_Li1ENS1E_22PredicatedTileIteratorINS1E_26OutputTileOptimalThreadMapINS1E_15OutputTileShapeILi128ELi1ELi4ELi4ELi1EEENS1I_ILi1ELi4ELi2ELi1ELi8EEELi256ELi1ELi32EEEfLb0EEENS1D_4warp20FragmentIteratorSimtISX_NS1_6thread3MmaINS6_ILi8ELi8ELi1EEEfSL_fSE_fSE_NS_4arch13OpMultiplyAddEbEESE_S13_EENS1N_16TileIteratorSimtISX_S1U_fSE_S13_EENS1E_18SharedLoadIteratorINS1L_18CompactedThreadMapEfLi4EEENS1D_6thread17LinearCombinationIfLi1EffLNS21_9ScaleType4KindE0ELS1A_2EEENSB_ILi0ELi17EEELi1ELi1EEENS4_30GemmIdentityThreadblockSwizzleILi1EEELb0EEEEEvNT_6ParamsE'.
GPGPU-Sim PTX: pushing kernel '_ZN7cutlass6KernelINS_4gemm6kernel4GemmINS1_11threadblock12MmaPipelinedINS1_9GemmShapeILi128ELi128ELi8EEENS_9transform11threadblock22PredicatedTileIteratorINS_11MatrixShapeILi128ELi8EEEfNS_6layout8RowMajorELi1ENS8_30PitchLinearStripminedThreadMapINS_16PitchLinearShapeILi8ELi128EEELi256ELi1EEELi1EEENS9_19RegularTileIteratorISC_fNSD_11ColumnMajorELi1ENS8_33TransposePitchLinearThreadMapSimtISI_EELi4EEENSA_INSB_ILi8ELi128EEEfSE_Li0ENSF_INSG_ILi128ELi8EEELi256ELi1EEELi1EEENSK_ISP_fSE_Li0ESR_Li4EEEfSE_NS4_9MmaPolicyINS1_4warp7MmaSimtINS6_ILi32ELi64ELi8EEEfSL_fSE_fSE_NSV_13MmaSimtPolicyINSB_ILi4ELi8EEENSD_19RowMajorInterleavedILi2EEENS6_ILi4ELi4ELi1EEEEELi1ELNS_16ComplexTransformE0ELS14_0EbEENSB_ILi4ELi0EEENSB_ILi0ELi0EEELi1EEENS_21NumericArrayConverterIffLi4ELNS_15FloatRoundStyleE2EEES1B_bEENS_8epilogue11threadblock8EpilogueIS7_S15_Li1ENS1E_22PredicatedTileIteratorINS1E_26OutputTileOptimalThreadMapINS1E_15OutputTileShapeILi128ELi1ELi4ELi4ELi1EEENS1I_ILi1ELi4ELi2ELi1ELi8EEELi256ELi1ELi32EEEfLb0EEENS1D_4warp20FragmentIteratorSimtISX_NS1_6thread3MmaINS6_ILi8ELi8ELi1EEEfSL_fSE_fSE_NS_4arch13OpMultiplyAddEbEESE_S13_EENS1N_16TileIteratorSimtISX_S1U_fSE_S13_EENS1E_18SharedLoadIteratorINS1L_18CompactedThreadMapEfLi4EEENS1D_6thread17LinearCombinationIfLi1EffLNS21_9ScaleType4KindE0ELS1A_2EEENSB_ILi0ELi17EEELi1ELi1EEENS4_30GemmIdentityThreadblockSwizzleILi1EEELb0EEEEEvNT_6ParamsE' to stream 0, gridDim= (16,16,1) blockDim = (256,1,1) 
GPGPU-Sim uArch: Shader 0 bind to kernel 1 '_ZN7cutlass6KernelINS_4gemm6kernel4GemmINS1_11threadblock12MmaPipelinedINS1_9GemmShapeILi128ELi128ELi8EEENS_9transform11threadblock22PredicatedTileIteratorINS_11MatrixShapeILi128ELi8EEEfNS_6layout8RowMajorELi1ENS8_30PitchLinearStripminedThreadMapINS_16PitchLinearShapeILi8ELi128EEELi256ELi1EEELi1EEENS9_19RegularTileIteratorISC_fNSD_11ColumnMajorELi1ENS8_33TransposePitchLinearThreadMapSimtISI_EELi4EEENSA_INSB_ILi8ELi128EEEfSE_Li0ENSF_INSG_ILi128ELi8EEELi256ELi1EEELi1EEENSK_ISP_fSE_Li0ESR_Li4EEEfSE_NS4_9MmaPolicyINS1_4warp7MmaSimtINS6_ILi32ELi64ELi8EEEfSL_fSE_fSE_NSV_13MmaSimtPolicyINSB_ILi4ELi8EEENSD_19RowMajorInterleavedILi2EEENS6_ILi4ELi4ELi1EEEEELi1ELNS_16ComplexTransformE0ELS14_0EbEENSB_ILi4ELi0EEENSB_ILi0ELi0EEELi1EEENS_21NumericArrayConverterIffLi4ELNS_15FloatRoundStyleE2EEES1B_bEENS_8epilogue11threadblock8EpilogueIS7_S15_Li1ENS1E_22PredicatedTileIteratorINS1E_26OutputTileOptimalThreadMapINS1E_15OutputTileShapeILi128ELi1ELi4ELi4ELi1EEENS1I_ILi1ELi4ELi2ELi1ELi8EEELi256ELi1ELi32EEEfLb0EEENS1D_4warp20FragmentIteratorSimtISX_NS1_6thread3MmaINS6_ILi8ELi8ELi1EEEfSL_fSE_fSE_NS_4arch13OpMultiplyAddEbEESE_S13_EENS1N_16TileIteratorSimtISX_S1U_fSE_S13_EENS1E_18SharedLoadIteratorINS1L_18CompactedThreadMapEfLi4EEENS1D_6thread17LinearCombinationIfLi1EffLNS21_9ScaleType4KindE0ELS1A_2EEENSB_ILi0ELi17EEELi1ELi1EEENS4_30GemmIdentityThreadblockSwizzleILi1EEELb0EEEEEvNT_6ParamsE'
GPGPU-Sim uArch: CTA/core = 1, limited by: regs
GPGPU-Sim: Reconfigure L1 cache to 128KB
GPGPU-Sim uArch: Shader 1 bind to kernel 1 '_ZN7cutlass6KernelINS_4gemm6kernel4GemmINS1_11threadblock12MmaPipelinedINS1_9GemmShapeILi128ELi128ELi8EEENS_9transform11threadblock22PredicatedTileIteratorINS_11MatrixShapeILi128ELi8EEEfNS_6layout8RowMajorELi1ENS8_30PitchLinearStripminedThreadMapINS_16PitchLinearShapeILi8ELi128EEELi256ELi1EEELi1EEENS9_19RegularTileIteratorISC_fNSD_11ColumnMajorELi1ENS8_33TransposePitchLinearThreadMapSimtISI_EELi4EEENSA_INSB_ILi8ELi128EEEfSE_Li0ENSF_INSG_ILi128ELi8EEELi256ELi1EEELi1EEENSK_ISP_fSE_Li0ESR_Li4EEEfSE_NS4_9MmaPolicyINS1_4warp7MmaSimtINS6_ILi32ELi64ELi8EEEfSL_fSE_fSE_NSV_13MmaSimtPolicyINSB_ILi4ELi8EEENSD_19RowMajorInterleavedILi2EEENS6_ILi4ELi4ELi1EEEEELi1ELNS_16ComplexTransformE0ELS14_0EbEENSB_ILi4ELi0EEENSB_ILi0ELi0EEELi1EEENS_21NumericArrayConverterIffLi4ELNS_15FloatRoundStyleE2EEES1B_bEENS_8epilogue11threadblock8EpilogueIS7_S15_Li1ENS1E_22PredicatedTileIteratorINS1E_26OutputTileOptimalThreadMapINS1E_15OutputTileShapeILi128ELi1ELi4ELi4ELi1EEENS1I_ILi1ELi4ELi2ELi1ELi8EEELi256ELi1ELi32EEEfLb0EEENS1D_4warp20FragmentIteratorSimtISX_NS1_6thread3MmaINS6_ILi8ELi8ELi1EEEfSL_fSE_fSE_NS_4arch13OpMultiplyAddEbEESE_S13_EENS1N_16TileIteratorSimtISX_S1U_fSE_S13_EENS1E_18SharedLoadIteratorINS1L_18CompactedThreadMapEfLi4EEENS1D_6thread17LinearCombinationIfLi1EffLNS21_9ScaleType4KindE0ELS1A_2EEENSB_ILi0ELi17EEELi1ELi1EEENS4_30GemmIdentityThreadblockSwizzleILi1EEELb0EEEEEvNT_6ParamsE'
GPGPU-Sim uArch: Shader 2 bind to kernel 1 '_ZN7cutlass6KernelINS_4gemm6kernel4GemmINS1_11threadblock12MmaPipelinedINS1_9GemmShapeILi128ELi128ELi8EEENS_9transform11threadblock22PredicatedTileIteratorINS_11MatrixShapeILi128ELi8EEEfNS_6layout8RowMajorELi1ENS8_30PitchLinearStripminedThreadMapINS_16PitchLinearShapeILi8ELi128EEELi256ELi1EEELi1EEENS9_19RegularTileIteratorISC_fNSD_11ColumnMajorELi1ENS8_33TransposePitchLinearThreadMapSimtISI_EELi4EEENSA_INSB_ILi8ELi128EEEfSE_Li0ENSF_INSG_ILi128ELi8EEELi256ELi1EEELi1EEENSK_ISP_fSE_Li0ESR_Li4EEEfSE_NS4_9MmaPolicyINS1_4warp7MmaSimtINS6_ILi32ELi64ELi8EEEfSL_fSE_fSE_NSV_13MmaSimtPolicyINSB_ILi4ELi8EEENSD_19RowMajorInterleavedILi2EEENS6_ILi4ELi4ELi1EEEEELi1ELNS_16ComplexTransformE0ELS14_0EbEENSB_ILi4ELi0EEENSB_ILi0ELi0EEELi1EEENS_21NumericArrayConverterIffLi4ELNS_15FloatRoundStyleE2EEES1B_bEENS_8epilogue11threadblock8EpilogueIS7_S15_Li1ENS1E_22PredicatedTileIteratorINS1E_26OutputTileOptimalThreadMapINS1E_15OutputTileShapeILi128ELi1ELi4ELi4ELi1EEENS1I_ILi1ELi4ELi2ELi1ELi8EEELi256ELi1ELi32EEEfLb0EEENS1D_4warp20FragmentIteratorSimtISX_NS1_6thread3MmaINS6_ILi8ELi8ELi1EEEfSL_fSE_fSE_NS_4arch13OpMultiplyAddEbEESE_S13_EENS1N_16TileIteratorSimtISX_S1U_fSE_S13_EENS1E_18SharedLoadIteratorINS1L_18CompactedThreadMapEfLi4EEENS1D_6thread17LinearCombinationIfLi1EffLNS21_9ScaleType4KindE0ELS1A_2EEENSB_ILi0ELi17EEELi1ELi1EEENS4_30GemmIdentityThreadblockSwizzleILi1EEELb0EEEEEvNT_6ParamsE'
GPGPU-Sim uArch: Shader 3 bind to kernel 1 '_ZN7cutlass6KernelINS_4gemm6kernel4GemmINS1_11threadblock12MmaPipelinedINS1_9GemmShapeILi128ELi128ELi8EEENS_9transform11threadblock22PredicatedTileIteratorINS_11MatrixShapeILi128ELi8EEEfNS_6layout8RowMajorELi1ENS8_30PitchLinearStripminedThreadMapINS_16PitchLinearShapeILi8ELi128EEELi256ELi1EEELi1EEENS9_19RegularTileIteratorISC_fNSD_11ColumnMajorELi1ENS8_33TransposePitchLinearThreadMapSimtISI_EELi4EEENSA_INSB_ILi8ELi128EEEfSE_Li0ENSF_INSG_ILi128ELi8EEELi256ELi1EEELi1EEENSK_ISP_fSE_Li0ESR_Li4EEEfSE_NS4_9MmaPolicyINS1_4warp7MmaSimtINS6_ILi32ELi64ELi8EEEfSL_fSE_fSE_NSV_13MmaSimtPolicyINSB_ILi4ELi8EEENSD_19RowMajorInterleavedILi2EEENS6_ILi4ELi4ELi1EEEEELi1ELNS_16ComplexTransformE0ELS14_0EbEENSB_ILi4ELi0EEENSB_ILi0ELi0EEELi1EEENS_21NumericArrayConverterIffLi4ELNS_15FloatRoundStyleE2EEES1B_bEENS_8epilogue11threadblock8EpilogueIS7_S15_Li1ENS1E_22PredicatedTileIteratorINS1E_26OutputTileOptimalThreadMapINS1E_15OutputTileShapeILi128ELi1ELi4ELi4ELi1EEENS1I_ILi1ELi4ELi2ELi1ELi8EEELi256ELi1ELi32EEEfLb0EEENS1D_4warp20FragmentIteratorSimtISX_NS1_6thread3MmaINS6_ILi8ELi8ELi1EEEfSL_fSE_fSE_NS_4arch13OpMultiplyAddEbEESE_S13_EENS1N_16TileIteratorSimtISX_S1U_fSE_S13_EENS1E_18SharedLoadIteratorINS1L_18CompactedThreadMapEfLi4EEENS1D_6thread17LinearCombinationIfLi1EffLNS21_9ScaleType4KindE0ELS1A_2EEENSB_ILi0ELi17EEELi1ELi1EEENS4_30GemmIdentityThreadblockSwizzleILi1EEELb0EEEEEvNT_6ParamsE'
GPGPU-Sim uArch: Shader 4 bind to kernel 1 '_ZN7cutlass6KernelINS_4gemm6kernel4GemmINS1_11threadblock12MmaPipelinedINS1_9GemmShapeILi128ELi128ELi8EEENS_9transform11threadblock22PredicatedTileIteratorINS_11MatrixShapeILi128ELi8EEEfNS_6layout8RowMajorELi1ENS8_30PitchLinearStripminedThreadMapINS_16PitchLinearShapeILi8ELi128EEELi256ELi1EEELi1EEENS9_19RegularTileIteratorISC_fNSD_11ColumnMajorELi1ENS8_33TransposePitchLinearThreadMapSimtISI_EELi4EEENSA_INSB_ILi8ELi128EEEfSE_Li0ENSF_INSG_ILi128ELi8EEELi256ELi1EEELi1EEENSK_ISP_fSE_Li0ESR_Li4EEEfSE_NS4_9MmaPolicyINS1_4warp7MmaSimtINS6_ILi32ELi64ELi8EEEfSL_fSE_fSE_NSV_13MmaSimtPolicyINSB_ILi4ELi8EEENSD_19RowMajorInterleavedILi2EEENS6_ILi4ELi4ELi1EEEEELi1ELNS_16ComplexTransformE0ELS14_0EbEENSB_ILi4ELi0EEENSB_ILi0ELi0EEELi1EEENS_21NumericArrayConverterIffLi4ELNS_15FloatRoundStyleE2EEES1B_bEENS_8epilogue11threadblock8EpilogueIS7_S15_Li1ENS1E_22PredicatedTileIteratorINS1E_26OutputTileOptimalThreadMapINS1E_15OutputTileShapeILi128ELi1ELi4ELi4ELi1EEENS1I_ILi1ELi4ELi2ELi1ELi8EEELi256ELi1ELi32EEEfLb0EEENS1D_4warp20FragmentIteratorSimtISX_NS1_6thread3MmaINS6_ILi8ELi8ELi1EEEfSL_fSE_fSE_NS_4arch13OpMultiplyAddEbEESE_S13_EENS1N_16TileIteratorSimtISX_S1U_fSE_S13_EENS1E_18SharedLoadIteratorINS1L_18CompactedThreadMapEfLi4EEENS1D_6thread17LinearCombinationIfLi1EffLNS21_9ScaleType4KindE0ELS1A_2EEENSB_ILi0ELi17EEELi1ELi1EEENS4_30GemmIdentityThreadblockSwizzleILi1EEELb0EEEEEvNT_6ParamsE'
GPGPU-Sim uArch: Shader 5 bind to kernel 1 '_ZN7cutlass6KernelINS_4gemm6kernel4GemmINS1_11threadblock12MmaPipelinedINS1_9GemmShapeILi128ELi128ELi8EEENS_9transform11threadblock22PredicatedTileIteratorINS_11MatrixShapeILi128ELi8EEEfNS_6layout8RowMajorELi1ENS8_30PitchLinearStripminedThreadMapINS_16PitchLinearShapeILi8ELi128EEELi256ELi1EEELi1EEENS9_19RegularTileIteratorISC_fNSD_11ColumnMajorELi1ENS8_33TransposePitchLinearThreadMapSimtISI_EELi4EEENSA_INSB_ILi8ELi128EEEfSE_Li0ENSF_INSG_ILi128ELi8EEELi256ELi1EEELi1EEENSK_ISP_fSE_Li0ESR_Li4EEEfSE_NS4_9MmaPolicyINS1_4warp7MmaSimtINS6_ILi32ELi64ELi8EEEfSL_fSE_fSE_NSV_13MmaSimtPolicyINSB_ILi4ELi8EEENSD_19RowMajorInterleavedILi2EEENS6_ILi4ELi4ELi1EEEEELi1ELNS_16ComplexTransformE0ELS14_0EbEENSB_ILi4ELi0EEENSB_ILi0ELi0EEELi1EEENS_21NumericArrayConverterIffLi4ELNS_15FloatRoundStyleE2EEES1B_bEENS_8epilogue11threadblock8EpilogueIS7_S15_Li1ENS1E_22PredicatedTileIteratorINS1E_26OutputTileOptimalThreadMapINS1E_15OutputTileShapeILi128ELi1ELi4ELi4ELi1EEENS1I_ILi1ELi4ELi2ELi1ELi8EEELi256ELi1ELi32EEEfLb0EEENS1D_4warp20FragmentIteratorSimtISX_NS1_6thread3MmaINS6_ILi8ELi8ELi1EEEfSL_fSE_fSE_NS_4arch13OpMultiplyAddEbEESE_S13_EENS1N_16TileIteratorSimtISX_S1U_fSE_S13_EENS1E_18SharedLoadIteratorINS1L_18CompactedThreadMapEfLi4EEENS1D_6thread17LinearCombinationIfLi1EffLNS21_9ScaleType4KindE0ELS1A_2EEENSB_ILi0ELi17EEELi1ELi1EEENS4_30GemmIdentityThreadblockSwizzleILi1EEELb0EEEEEvNT_6ParamsE'
GPGPU-Sim uArch: Shader 6 bind to kernel 1 '_ZN7cutlass6KernelINS_4gemm6kernel4GemmINS1_11threadblock12MmaPipelinedINS1_9GemmShapeILi128ELi128ELi8EEENS_9transform11threadblock22PredicatedTileIteratorINS_11MatrixShapeILi128ELi8EEEfNS_6layout8RowMajorELi1ENS8_30PitchLinearStripminedThreadMapINS_16PitchLinearShapeILi8ELi128EEELi256ELi1EEELi1EEENS9_19RegularTileIteratorISC_fNSD_11ColumnMajorELi1ENS8_33TransposePitchLinearThreadMapSimtISI_EELi4EEENSA_INSB_ILi8ELi128EEEfSE_Li0ENSF_INSG_ILi128ELi8EEELi256ELi1EEELi1EEENSK_ISP_fSE_Li0ESR_Li4EEEfSE_NS4_9MmaPolicyINS1_4warp7MmaSimtINS6_ILi32ELi64ELi8EEEfSL_fSE_fSE_NSV_13MmaSimtPolicyINSB_ILi4ELi8EEENSD_19RowMajorInterleavedILi2EEENS6_ILi4ELi4ELi1EEEEELi1ELNS_16ComplexTransformE0ELS14_0EbEENSB_ILi4ELi0EEENSB_ILi0ELi0EEELi1EEENS_21NumericArrayConverterIffLi4ELNS_15FloatRoundStyleE2EEES1B_bEENS_8epilogue11threadblock8EpilogueIS7_S15_Li1ENS1E_22PredicatedTileIteratorINS1E_26OutputTileOptimalThreadMapINS1E_15OutputTileShapeILi128ELi1ELi4ELi4ELi1EEENS1I_ILi1ELi4ELi2ELi1ELi8EEELi256ELi1ELi32EEEfLb0EEENS1D_4warp20FragmentIteratorSimtISX_NS1_6thread3MmaINS6_ILi8ELi8ELi1EEEfSL_fSE_fSE_NS_4arch13OpMultiplyAddEbEESE_S13_EENS1N_16TileIteratorSimtISX_S1U_fSE_S13_EENS1E_18SharedLoadIteratorINS1L_18CompactedThreadMapEfLi4EEENS1D_6thread17LinearCombinationIfLi1EffLNS21_9ScaleType4KindE0ELS1A_2EEENSB_ILi0ELi17EEELi1ELi1EEENS4_30GemmIdentityThreadblockSwizzleILi1EEELb0EEEEEvNT_6ParamsE'
GPGPU-Sim uArch: Shader 7 bind to kernel 1 '_ZN7cutlass6KernelINS_4gemm6kernel4GemmINS1_11threadblock12MmaPipelinedINS1_9GemmShapeILi128ELi128ELi8EEENS_9transform11threadblock22PredicatedTileIteratorINS_11MatrixShapeILi128ELi8EEEfNS_6layout8RowMajorELi1ENS8_30PitchLinearStripminedThreadMapINS_16PitchLinearShapeILi8ELi128EEELi256ELi1EEELi1EEENS9_19RegularTileIteratorISC_fNSD_11ColumnMajorELi1ENS8_33TransposePitchLinearThreadMapSimtISI_EELi4EEENSA_INSB_ILi8ELi128EEEfSE_Li0ENSF_INSG_ILi128ELi8EEELi256ELi1EEELi1EEENSK_ISP_fSE_Li0ESR_Li4EEEfSE_NS4_9MmaPolicyINS1_4warp7MmaSimtINS6_ILi32ELi64ELi8EEEfSL_fSE_fSE_NSV_13MmaSimtPolicyINSB_ILi4ELi8EEENSD_19RowMajorInterleavedILi2EEENS6_ILi4ELi4ELi1EEEEELi1ELNS_16ComplexTransformE0ELS14_0EbEENSB_ILi4ELi0EEENSB_ILi0ELi0EEELi1EEENS_21NumericArrayConverterIffLi4ELNS_15FloatRoundStyleE2EEES1B_bEENS_8epilogue11threadblock8EpilogueIS7_S15_Li1ENS1E_22PredicatedTileIteratorINS1E_26OutputTileOptimalThreadMapINS1E_15OutputTileShapeILi128ELi1ELi4ELi4ELi1EEENS1I_ILi1ELi4ELi2ELi1ELi8EEELi256ELi1ELi32EEEfLb0EEENS1D_4warp20FragmentIteratorSimtISX_NS1_6thread3MmaINS6_ILi8ELi8ELi1EEEfSL_fSE_fSE_NS_4arch13OpMultiplyAddEbEESE_S13_EENS1N_16TileIteratorSimtISX_S1U_fSE_S13_EENS1E_18SharedLoadIteratorINS1L_18CompactedThreadMapEfLi4EEENS1D_6thread17LinearCombinationIfLi1EffLNS21_9ScaleType4KindE0ELS1A_2EEENSB_ILi0ELi17EEELi1ELi1EEENS4_30GemmIdentityThreadblockSwizzleILi1EEELb0EEEEEvNT_6ParamsE'
GPGPU-Sim uArch: Shader 8 bind to kernel 1 '_ZN7cutlass6KernelINS_4gemm6kernel4GemmINS1_11threadblock12MmaPipelinedINS1_9GemmShapeILi128ELi128ELi8EEENS_9transform11threadblock22PredicatedTileIteratorINS_11MatrixShapeILi128ELi8EEEfNS_6layout8RowMajorELi1ENS8_30PitchLinearStripminedThreadMapINS_16PitchLinearShapeILi8ELi128EEELi256ELi1EEELi1EEENS9_19RegularTileIteratorISC_fNSD_11ColumnMajorELi1ENS8_33TransposePitchLinearThreadMapSimtISI_EELi4EEENSA_INSB_ILi8ELi128EEEfSE_Li0ENSF_INSG_ILi128ELi8EEELi256ELi1EEELi1EEENSK_ISP_fSE_Li0ESR_Li4EEEfSE_NS4_9MmaPolicyINS1_4warp7MmaSimtINS6_ILi32ELi64ELi8EEEfSL_fSE_fSE_NSV_13MmaSimtPolicyINSB_ILi4ELi8EEENSD_19RowMajorInterleavedILi2EEENS6_ILi4ELi4ELi1EEEEELi1ELNS_16ComplexTransformE0ELS14_0EbEENSB_ILi4ELi0EEENSB_ILi0ELi0EEELi1EEENS_21NumericArrayConverterIffLi4ELNS_15FloatRoundStyleE2EEES1B_bEENS_8epilogue11threadblock8EpilogueIS7_S15_Li1ENS1E_22PredicatedTileIteratorINS1E_26OutputTileOptimalThreadMapINS1E_15OutputTileShapeILi128ELi1ELi4ELi4ELi1EEENS1I_ILi1ELi4ELi2ELi1ELi8EEELi256ELi1ELi32EEEfLb0EEENS1D_4warp20FragmentIteratorSimtISX_NS1_6thread3MmaINS6_ILi8ELi8ELi1EEEfSL_fSE_fSE_NS_4arch13OpMultiplyAddEbEESE_S13_EENS1N_16TileIteratorSimtISX_S1U_fSE_S13_EENS1E_18SharedLoadIteratorINS1L_18CompactedThreadMapEfLi4EEENS1D_6thread17LinearCombinationIfLi1EffLNS21_9ScaleType4KindE0ELS1A_2EEENSB_ILi0ELi17EEELi1ELi1EEENS4_30GemmIdentityThreadblockSwizzleILi1EEELb0EEEEEvNT_6ParamsE'
GPGPU-Sim uArch: Shader 9 bind to kernel 1 '_ZN7cutlass6KernelINS_4gemm6kernel4GemmINS1_11threadblock12MmaPipelinedINS1_9GemmShapeILi128ELi128ELi8EEENS_9transform11threadblock22PredicatedTileIteratorINS_11MatrixShapeILi128ELi8EEEfNS_6layout8RowMajorELi1ENS8_30PitchLinearStripminedThreadMapINS_16PitchLinearShapeILi8ELi128EEELi256ELi1EEELi1EEENS9_19RegularTileIteratorISC_fNSD_11ColumnMajorELi1ENS8_33TransposePitchLinearThreadMapSimtISI_EELi4EEENSA_INSB_ILi8ELi128EEEfSE_Li0ENSF_INSG_ILi128ELi8EEELi256ELi1EEELi1EEENSK_ISP_fSE_Li0ESR_Li4EEEfSE_NS4_9MmaPolicyINS1_4warp7MmaSimtINS6_ILi32ELi64ELi8EEEfSL_fSE_fSE_NSV_13MmaSimtPolicyINSB_ILi4ELi8EEENSD_19RowMajorInterleavedILi2EEENS6_ILi4ELi4ELi1EEEEELi1ELNS_16ComplexTransformE0ELS14_0EbEENSB_ILi4ELi0EEENSB_ILi0ELi0EEELi1EEENS_21NumericArrayConverterIffLi4ELNS_15FloatRoundStyleE2EEES1B_bEENS_8epilogue11threadblock8EpilogueIS7_S15_Li1ENS1E_22PredicatedTileIteratorINS1E_26OutputTileOptimalThreadMapINS1E_15OutputTileShapeILi128ELi1ELi4ELi4ELi1EEENS1I_ILi1ELi4ELi2ELi1ELi8EEELi256ELi1ELi32EEEfLb0EEENS1D_4warp20FragmentIteratorSimtISX_NS1_6thread3MmaINS6_ILi8ELi8ELi1EEEfSL_fSE_fSE_NS_4arch13OpMultiplyAddEbEESE_S13_EENS1N_16TileIteratorSimtISX_S1U_fSE_S13_EENS1E_18SharedLoadIteratorINS1L_18CompactedThreadMapEfLi4EEENS1D_6thread17LinearCombinationIfLi1EffLNS21_9ScaleType4KindE0ELS1A_2EEENSB_ILi0ELi17EEELi1ELi1EEENS4_30GemmIdentityThreadblockSwizzleILi1EEELb0EEEEEvNT_6ParamsE'
GPGPU-Sim uArch: Shader 10 bind to kernel 1 '_ZN7cutlass6KernelINS_4gemm6kernel4GemmINS1_11threadblock12MmaPipelinedINS1_9GemmShapeILi128ELi128ELi8EEENS_9transform11threadblock22PredicatedTileIteratorINS_11MatrixShapeILi128ELi8EEEfNS_6layout8RowMajorELi1ENS8_30PitchLinearStripminedThreadMapINS_16PitchLinearShapeILi8ELi128EEELi256ELi1EEELi1EEENS9_19RegularTileIteratorISC_fNSD_11ColumnMajorELi1ENS8_33TransposePitchLinearThreadMapSimtISI_EELi4EEENSA_INSB_ILi8ELi128EEEfSE_Li0ENSF_INSG_ILi128ELi8EEELi256ELi1EEELi1EEENSK_ISP_fSE_Li0ESR_Li4EEEfSE_NS4_9MmaPolicyINS1_4warp7MmaSimtINS6_ILi32ELi64ELi8EEEfSL_fSE_fSE_NSV_13MmaSimtPolicyINSB_ILi4ELi8EEENSD_19RowMajorInterleavedILi2EEENS6_ILi4ELi4ELi1EEEEELi1ELNS_16ComplexTransformE0ELS14_0EbEENSB_ILi4ELi0EEENSB_ILi0ELi0EEELi1EEENS_21NumericArrayConverterIffLi4ELNS_15FloatRoundStyleE2EEES1B_bEENS_8epilogue11threadblock8EpilogueIS7_S15_Li1ENS1E_22PredicatedTileIteratorINS1E_26OutputTileOptimalThreadMapINS1E_15OutputTileShapeILi128ELi1ELi4ELi4ELi1EEENS1I_ILi1ELi4ELi2ELi1ELi8EEELi256ELi1ELi32EEEfLb0EEENS1D_4warp20FragmentIteratorSimtISX_NS1_6thread3MmaINS6_ILi8ELi8ELi1EEEfSL_fSE_fSE_NS_4arch13OpMultiplyAddEbEESE_S13_EENS1N_16TileIteratorSimtISX_S1U_fSE_S13_EENS1E_18SharedLoadIteratorINS1L_18CompactedThreadMapEfLi4EEENS1D_6thread17LinearCombinationIfLi1EffLNS21_9ScaleType4KindE0ELS1A_2EEENSB_ILi0ELi17EEELi1ELi1EEENS4_30GemmIdentityThreadblockSwizzleILi1EEELb0EEEEEvNT_6ParamsE'
GPGPU-Sim uArch: Shader 11 bind to kernel 1 '_ZN7cutlass6KernelINS_4gemm6kernel4GemmINS1_11threadblock12MmaPipelinedINS1_9GemmShapeILi128ELi128ELi8EEENS_9transform11threadblock22PredicatedTileIteratorINS_11MatrixShapeILi128ELi8EEEfNS_6layout8RowMajorELi1ENS8_30PitchLinearStripminedThreadMapINS_16PitchLinearShapeILi8ELi128EEELi256ELi1EEELi1EEENS9_19RegularTileIteratorISC_fNSD_11ColumnMajorELi1ENS8_33TransposePitchLinearThreadMapSimtISI_EELi4EEENSA_INSB_ILi8ELi128EEEfSE_Li0ENSF_INSG_ILi128ELi8EEELi256ELi1EEELi1EEENSK_ISP_fSE_Li0ESR_Li4EEEfSE_NS4_9MmaPolicyINS1_4warp7MmaSimtINS6_ILi32ELi64ELi8EEEfSL_fSE_fSE_NSV_13MmaSimtPolicyINSB_ILi4ELi8EEENSD_19RowMajorInterleavedILi2EEENS6_ILi4ELi4ELi1EEEEELi1ELNS_16ComplexTransformE0ELS14_0EbEENSB_ILi4ELi0EEENSB_ILi0ELi0EEELi1EEENS_21NumericArrayConverterIffLi4ELNS_15FloatRoundStyleE2EEES1B_bEENS_8epilogue11threadblock8EpilogueIS7_S15_Li1ENS1E_22PredicatedTileIteratorINS1E_26OutputTileOptimalThreadMapINS1E_15OutputTileShapeILi128ELi1ELi4ELi4ELi1EEENS1I_ILi1ELi4ELi2ELi1ELi8EEELi256ELi1ELi32EEEfLb0EEENS1D_4warp20FragmentIteratorSimtISX_NS1_6thread3MmaINS6_ILi8ELi8ELi1EEEfSL_fSE_fSE_NS_4arch13OpMultiplyAddEbEESE_S13_EENS1N_16TileIteratorSimtISX_S1U_fSE_S13_EENS1E_18SharedLoadIteratorINS1L_18CompactedThreadMapEfLi4EEENS1D_6thread17LinearCombinationIfLi1EffLNS21_9ScaleType4KindE0ELS1A_2EEENSB_ILi0ELi17EEELi1ELi1EEENS4_30GemmIdentityThreadblockSwizzleILi1EEELb0EEEEEvNT_6ParamsE'
GPGPU-Sim uArch: Shader 12 bind to kernel 1 '_ZN7cutlass6KernelINS_4gemm6kernel4GemmINS1_11threadblock12MmaPipelinedINS1_9GemmShapeILi128ELi128ELi8EEENS_9transform11threadblock22PredicatedTileIteratorINS_11MatrixShapeILi128ELi8EEEfNS_6layout8RowMajorELi1ENS8_30PitchLinearStripminedThreadMapINS_16PitchLinearShapeILi8ELi128EEELi256ELi1EEELi1EEENS9_19RegularTileIteratorISC_fNSD_11ColumnMajorELi1ENS8_33TransposePitchLinearThreadMapSimtISI_EELi4EEENSA_INSB_ILi8ELi128EEEfSE_Li0ENSF_INSG_ILi128ELi8EEELi256ELi1EEELi1EEENSK_ISP_fSE_Li0ESR_Li4EEEfSE_NS4_9MmaPolicyINS1_4warp7MmaSimtINS6_ILi32ELi64ELi8EEEfSL_fSE_fSE_NSV_13MmaSimtPolicyINSB_ILi4ELi8EEENSD_19RowMajorInterleavedILi2EEENS6_ILi4ELi4ELi1EEEEELi1ELNS_16ComplexTransformE0ELS14_0EbEENSB_ILi4ELi0EEENSB_ILi0ELi0EEELi1EEENS_21NumericArrayConverterIffLi4ELNS_15FloatRoundStyleE2EEES1B_bEENS_8epilogue11threadblock8EpilogueIS7_S15_Li1ENS1E_22PredicatedTileIteratorINS1E_26OutputTileOptimalThreadMapINS1E_15OutputTileShapeILi128ELi1ELi4ELi4ELi1EEENS1I_ILi1ELi4ELi2ELi1ELi8EEELi256ELi1ELi32EEEfLb0EEENS1D_4warp20FragmentIteratorSimtISX_NS1_6thread3MmaINS6_ILi8ELi8ELi1EEEfSL_fSE_fSE_NS_4arch13OpMultiplyAddEbEESE_S13_EENS1N_16TileIteratorSimtISX_S1U_fSE_S13_EENS1E_18SharedLoadIteratorINS1L_18CompactedThreadMapEfLi4EEENS1D_6thread17LinearCombinationIfLi1EffLNS21_9ScaleType4KindE0ELS1A_2EEENSB_ILi0ELi17EEELi1ELi1EEENS4_30GemmIdentityThreadblockSwizzleILi1EEELb0EEEEEvNT_6ParamsE'
GPGPU-Sim uArch: Shader 13 bind to kernel 1 '_ZN7cutlass6KernelINS_4gemm6kernel4GemmINS1_11threadblock12MmaPipelinedINS1_9GemmShapeILi128ELi128ELi8EEENS_9transform11threadblock22PredicatedTileIteratorINS_11MatrixShapeILi128ELi8EEEfNS_6layout8RowMajorELi1ENS8_30PitchLinearStripminedThreadMapINS_16PitchLinearShapeILi8ELi128EEELi256ELi1EEELi1EEENS9_19RegularTileIteratorISC_fNSD_11ColumnMajorELi1ENS8_33TransposePitchLinearThreadMapSimtISI_EELi4EEENSA_INSB_ILi8ELi128EEEfSE_Li0ENSF_INSG_ILi128ELi8EEELi256ELi1EEELi1EEENSK_ISP_fSE_Li0ESR_Li4EEEfSE_NS4_9MmaPolicyINS1_4warp7MmaSimtINS6_ILi32ELi64ELi8EEEfSL_fSE_fSE_NSV_13MmaSimtPolicyINSB_ILi4ELi8EEENSD_19RowMajorInterleavedILi2EEENS6_ILi4ELi4ELi1EEEEELi1ELNS_16ComplexTransformE0ELS14_0EbEENSB_ILi4ELi0EEENSB_ILi0ELi0EEELi1EEENS_21NumericArrayConverterIffLi4ELNS_15FloatRoundStyleE2EEES1B_bEENS_8epilogue11threadblock8EpilogueIS7_S15_Li1ENS1E_22PredicatedTileIteratorINS1E_26OutputTileOptimalThreadMapINS1E_15OutputTileShapeILi128ELi1ELi4ELi4ELi1EEENS1I_ILi1ELi4ELi2ELi1ELi8EEELi256ELi1ELi32EEEfLb0EEENS1D_4warp20FragmentIteratorSimtISX_NS1_6thread3MmaINS6_ILi8ELi8ELi1EEEfSL_fSE_fSE_NS_4arch13OpMultiplyAddEbEESE_S13_EENS1N_16TileIteratorSimtISX_S1U_fSE_S13_EENS1E_18SharedLoadIteratorINS1L_18CompactedThreadMapEfLi4EEENS1D_6thread17LinearCombinationIfLi1EffLNS21_9ScaleType4KindE0ELS1A_2EEENSB_ILi0ELi17EEELi1ELi1EEENS4_30GemmIdentityThreadblockSwizzleILi1EEELb0EEEEEvNT_6ParamsE'
GPGPU-Sim uArch: Shader 14 bind to kernel 1 '_ZN7cutlass6KernelINS_4gemm6kernel4GemmINS1_11threadblock12MmaPipelinedINS1_9GemmShapeILi128ELi128ELi8EEENS_9transform11threadblock22PredicatedTileIteratorINS_11MatrixShapeILi128ELi8EEEfNS_6layout8RowMajorELi1ENS8_30PitchLinearStripminedThreadMapINS_16PitchLinearShapeILi8ELi128EEELi256ELi1EEELi1EEENS9_19RegularTileIteratorISC_fNSD_11ColumnMajorELi1ENS8_33TransposePitchLinearThreadMapSimtISI_EELi4EEENSA_INSB_ILi8ELi128EEEfSE_Li0ENSF_INSG_ILi128ELi8EEELi256ELi1EEELi1EEENSK_ISP_fSE_Li0ESR_Li4EEEfSE_NS4_9MmaPolicyINS1_4warp7MmaSimtINS6_ILi32ELi64ELi8EEEfSL_fSE_fSE_NSV_13MmaSimtPolicyINSB_ILi4ELi8EEENSD_19RowMajorInterleavedILi2EEENS6_ILi4ELi4ELi1EEEEELi1ELNS_16ComplexTransformE0ELS14_0EbEENSB_ILi4ELi0EEENSB_ILi0ELi0EEELi1EEENS_21NumericArrayConverterIffLi4ELNS_15FloatRoundStyleE2EEES1B_bEENS_8epilogue11threadblock8EpilogueIS7_S15_Li1ENS1E_22PredicatedTileIteratorINS1E_26OutputTileOptimalThreadMapINS1E_15OutputTileShapeILi128ELi1ELi4ELi4ELi1EEENS1I_ILi1ELi4ELi2ELi1ELi8EEELi256ELi1ELi32EEEfLb0EEENS1D_4warp20FragmentIteratorSimtISX_NS1_6thread3MmaINS6_ILi8ELi8ELi1EEEfSL_fSE_fSE_NS_4arch13OpMultiplyAddEbEESE_S13_EENS1N_16TileIteratorSimtISX_S1U_fSE_S13_EENS1E_18SharedLoadIteratorINS1L_18CompactedThreadMapEfLi4EEENS1D_6thread17LinearCombinationIfLi1EffLNS21_9ScaleType4KindE0ELS1A_2EEENSB_ILi0ELi17EEELi1ELi1EEENS4_30GemmIdentityThreadblockSwizzleILi1EEELb0EEEEEvNT_6ParamsE'
GPGPU-Sim uArch: Shader 15 bind to kernel 1 '_ZN7cutlass6KernelINS_4gemm6kernel4GemmINS1_11threadblock12MmaPipelinedINS1_9GemmShapeILi128ELi128ELi8EEENS_9transform11threadblock22PredicatedTileIteratorINS_11MatrixShapeILi128ELi8EEEfNS_6layout8RowMajorELi1ENS8_30PitchLinearStripminedThreadMapINS_16PitchLinearShapeILi8ELi128EEELi256ELi1EEELi1EEENS9_19RegularTileIteratorISC_fNSD_11ColumnMajorELi1ENS8_33TransposePitchLinearThreadMapSimtISI_EELi4EEENSA_INSB_ILi8ELi128EEEfSE_Li0ENSF_INSG_ILi128ELi8EEELi256ELi1EEELi1EEENSK_ISP_fSE_Li0ESR_Li4EEEfSE_NS4_9MmaPolicyINS1_4warp7MmaSimtINS6_ILi32ELi64ELi8EEEfSL_fSE_fSE_NSV_13MmaSimtPolicyINSB_ILi4ELi8EEENSD_19RowMajorInterleavedILi2EEENS6_ILi4ELi4ELi1EEEEELi1ELNS_16ComplexTransformE0ELS14_0EbEENSB_ILi4ELi0EEENSB_ILi0ELi0EEELi1EEENS_21NumericArrayConverterIffLi4ELNS_15FloatRoundStyleE2EEES1B_bEENS_8epilogue11threadblock8EpilogueIS7_S15_Li1ENS1E_22PredicatedTileIteratorINS1E_26OutputTileOptimalThreadMapINS1E_15OutputTileShapeILi128ELi1ELi4ELi4ELi1EEENS1I_ILi1ELi4ELi2ELi1ELi8EEELi256ELi1ELi32EEEfLb0EEENS1D_4warp20FragmentIteratorSimtISX_NS1_6thread3MmaINS6_ILi8ELi8ELi1EEEfSL_fSE_fSE_NS_4arch13OpMultiplyAddEbEESE_S13_EENS1N_16TileIteratorSimtISX_S1U_fSE_S13_EENS1E_18SharedLoadIteratorINS1L_18CompactedThreadMapEfLi4EEENS1D_6thread17LinearCombinationIfLi1EffLNS21_9ScaleType4KindE0ELS1A_2EEENSB_ILi0ELi17EEELi1ELi1EEENS4_30GemmIdentityThreadblockSwizzleILi1EEELb0EEEEEvNT_6ParamsE'
GPGPU-Sim uArch: Shader 16 bind to kernel 1 '_ZN7cutlass6KernelINS_4gemm6kernel4GemmINS1_11threadblock12MmaPipelinedINS1_9GemmShapeILi128ELi128ELi8EEENS_9transform11threadblock22PredicatedTileIteratorINS_11MatrixShapeILi128ELi8EEEfNS_6layout8RowMajorELi1ENS8_30PitchLinearStripminedThreadMapINS_16PitchLinearShapeILi8ELi128EEELi256ELi1EEELi1EEENS9_19RegularTileIteratorISC_fNSD_11ColumnMajorELi1ENS8_33TransposePitchLinearThreadMapSimtISI_EELi4EEENSA_INSB_ILi8ELi128EEEfSE_Li0ENSF_INSG_ILi128ELi8EEELi256ELi1EEELi1EEENSK_ISP_fSE_Li0ESR_Li4EEEfSE_NS4_9MmaPolicyINS1_4warp7MmaSimtINS6_ILi32ELi64ELi8EEEfSL_fSE_fSE_NSV_13MmaSimtPolicyINSB_ILi4ELi8EEENSD_19RowMajorInterleavedILi2EEENS6_ILi4ELi4ELi1EEEEELi1ELNS_16ComplexTransformE0ELS14_0EbEENSB_ILi4ELi0EEENSB_ILi0ELi0EEELi1EEENS_21NumericArrayConverterIffLi4ELNS_15FloatRoundStyleE2EEES1B_bEENS_8epilogue11threadblock8EpilogueIS7_S15_Li1ENS1E_22PredicatedTileIteratorINS1E_26OutputTileOptimalThreadMapINS1E_15OutputTileShapeILi128ELi1ELi4ELi4ELi1EEENS1I_ILi1ELi4ELi2ELi1ELi8EEELi256ELi1ELi32EEEfLb0EEENS1D_4warp20FragmentIteratorSimtISX_NS1_6thread3MmaINS6_ILi8ELi8ELi1EEEfSL_fSE_fSE_NS_4arch13OpMultiplyAddEbEESE_S13_EENS1N_16TileIteratorSimtISX_S1U_fSE_S13_EENS1E_18SharedLoadIteratorINS1L_18CompactedThreadMapEfLi4EEENS1D_6thread17LinearCombinationIfLi1EffLNS21_9ScaleType4KindE0ELS1A_2EEENSB_ILi0ELi17EEELi1ELi1EEENS4_30GemmIdentityThreadblockSwizzleILi1EEELb0EEEEEvNT_6ParamsE'
GPGPU-Sim uArch: Shader 17 bind to kernel 1 '_ZN7cutlass6KernelINS_4gemm6kernel4GemmINS1_11threadblock12MmaPipelinedINS1_9GemmShapeILi128ELi128ELi8EEENS_9transform11threadblock22PredicatedTileIteratorINS_11MatrixShapeILi128ELi8EEEfNS_6layout8RowMajorELi1ENS8_30PitchLinearStripminedThreadMapINS_16PitchLinearShapeILi8ELi128EEELi256ELi1EEELi1EEENS9_19RegularTileIteratorISC_fNSD_11ColumnMajorELi1ENS8_33TransposePitchLinearThreadMapSimtISI_EELi4EEENSA_INSB_ILi8ELi128EEEfSE_Li0ENSF_INSG_ILi128ELi8EEELi256ELi1EEELi1EEENSK_ISP_fSE_Li0ESR_Li4EEEfSE_NS4_9MmaPolicyINS1_4warp7MmaSimtINS6_ILi32ELi64ELi8EEEfSL_fSE_fSE_NSV_13MmaSimtPolicyINSB_ILi4ELi8EEENSD_19RowMajorInterleavedILi2EEENS6_ILi4ELi4ELi1EEEEELi1ELNS_16ComplexTransformE0ELS14_0EbEENSB_ILi4ELi0EEENSB_ILi0ELi0EEELi1EEENS_21NumericArrayConverterIffLi4ELNS_15FloatRoundStyleE2EEES1B_bEENS_8epilogue11threadblock8EpilogueIS7_S15_Li1ENS1E_22PredicatedTileIteratorINS1E_26OutputTileOptimalThreadMapINS1E_15OutputTileShapeILi128ELi1ELi4ELi4ELi1EEENS1I_ILi1ELi4ELi2ELi1ELi8EEELi256ELi1ELi32EEEfLb0EEENS1D_4warp20FragmentIteratorSimtISX_NS1_6thread3MmaINS6_ILi8ELi8ELi1EEEfSL_fSE_fSE_NS_4arch13OpMultiplyAddEbEESE_S13_EENS1N_16TileIteratorSimtISX_S1U_fSE_S13_EENS1E_18SharedLoadIteratorINS1L_18CompactedThreadMapEfLi4EEENS1D_6thread17LinearCombinationIfLi1EffLNS21_9ScaleType4KindE0ELS1A_2EEENSB_ILi0ELi17EEELi1ELi1EEENS4_30GemmIdentityThreadblockSwizzleILi1EEELb0EEEEEvNT_6ParamsE'
GPGPU-Sim uArch: Shader 18 bind to kernel 1 '_ZN7cutlass6KernelINS_4gemm6kernel4GemmINS1_11threadblock12MmaPipelinedINS1_9GemmShapeILi128ELi128ELi8EEENS_9transform11threadblock22PredicatedTileIteratorINS_11MatrixShapeILi128ELi8EEEfNS_6layout8RowMajorELi1ENS8_30PitchLinearStripminedThreadMapINS_16PitchLinearShapeILi8ELi128EEELi256ELi1EEELi1EEENS9_19RegularTileIteratorISC_fNSD_11ColumnMajorELi1ENS8_33TransposePitchLinearThreadMapSimtISI_EELi4EEENSA_INSB_ILi8ELi128EEEfSE_Li0ENSF_INSG_ILi128ELi8EEELi256ELi1EEELi1EEENSK_ISP_fSE_Li0ESR_Li4EEEfSE_NS4_9MmaPolicyINS1_4warp7MmaSimtINS6_ILi32ELi64ELi8EEEfSL_fSE_fSE_NSV_13MmaSimtPolicyINSB_ILi4ELi8EEENSD_19RowMajorInterleavedILi2EEENS6_ILi4ELi4ELi1EEEEELi1ELNS_16ComplexTransformE0ELS14_0EbEENSB_ILi4ELi0EEENSB_ILi0ELi0EEELi1EEENS_21NumericArrayConverterIffLi4ELNS_15FloatRoundStyleE2EEES1B_bEENS_8epilogue11threadblock8EpilogueIS7_S15_Li1ENS1E_22PredicatedTileIteratorINS1E_26OutputTileOptimalThreadMapINS1E_15OutputTileShapeILi128ELi1ELi4ELi4ELi1EEENS1I_ILi1ELi4ELi2ELi1ELi8EEELi256ELi1ELi32EEEfLb0EEENS1D_4warp20FragmentIteratorSimtISX_NS1_6thread3MmaINS6_ILi8ELi8ELi1EEEfSL_fSE_fSE_NS_4arch13OpMultiplyAddEbEESE_S13_EENS1N_16TileIteratorSimtISX_S1U_fSE_S13_EENS1E_18SharedLoadIteratorINS1L_18CompactedThreadMapEfLi4EEENS1D_6thread17LinearCombinationIfLi1EffLNS21_9ScaleType4KindE0ELS1A_2EEENSB_ILi0ELi17EEELi1ELi1EEENS4_30GemmIdentityThreadblockSwizzleILi1EEELb0EEEEEvNT_6ParamsE'
GPGPU-Sim uArch: Shader 19 bind to kernel 1 '_ZN7cutlass6KernelINS_4gemm6kernel4GemmINS1_11threadblock12MmaPipelinedINS1_9GemmShapeILi128ELi128ELi8EEENS_9transform11threadblock22PredicatedTileIteratorINS_11MatrixShapeILi128ELi8EEEfNS_6layout8RowMajorELi1ENS8_30PitchLinearStripminedThreadMapINS_16PitchLinearShapeILi8ELi128EEELi256ELi1EEELi1EEENS9_19RegularTileIteratorISC_fNSD_11ColumnMajorELi1ENS8_33TransposePitchLinearThreadMapSimtISI_EELi4EEENSA_INSB_ILi8ELi128EEEfSE_Li0ENSF_INSG_ILi128ELi8EEELi256ELi1EEELi1EEENSK_ISP_fSE_Li0ESR_Li4EEEfSE_NS4_9MmaPolicyINS1_4warp7MmaSimtINS6_ILi32ELi64ELi8EEEfSL_fSE_fSE_NSV_13MmaSimtPolicyINSB_ILi4ELi8EEENSD_19RowMajorInterleavedILi2EEENS6_ILi4ELi4ELi1EEEEELi1ELNS_16ComplexTransformE0ELS14_0EbEENSB_ILi4ELi0EEENSB_ILi0ELi0EEELi1EEENS_21NumericArrayConverterIffLi4ELNS_15FloatRoundStyleE2EEES1B_bEENS_8epilogue11threadblock8EpilogueIS7_S15_Li1ENS1E_22PredicatedTileIteratorINS1E_26OutputTileOptimalThreadMapINS1E_15OutputTileShapeILi128ELi1ELi4ELi4ELi1EEENS1I_ILi1ELi4ELi2ELi1ELi8EEELi256ELi1ELi32EEEfLb0EEENS1D_4warp20FragmentIteratorSimtISX_NS1_6thread3MmaINS6_ILi8ELi8ELi1EEEfSL_fSE_fSE_NS_4arch13OpMultiplyAddEbEESE_S13_EENS1N_16TileIteratorSimtISX_S1U_fSE_S13_EENS1E_18SharedLoadIteratorINS1L_18CompactedThreadMapEfLi4EEENS1D_6thread17LinearCombinationIfLi1EffLNS21_9ScaleType4KindE0ELS1A_2EEENSB_ILi0ELi17EEELi1ELi1EEENS4_30GemmIdentityThreadblockSwizzleILi1EEELb0EEEEEvNT_6ParamsE'
[...]

------------------------------------------------------------------------

Row_Buffer_Locality = 0.308310
Row_Buffer_Locality_read = 0.305817
Row_Buffer_Locality_write = 0.372135
Bank_Level_Parallism = 3.828108
Bank_Level_Parallism_Col = 2.253709
Bank_Level_Parallism_Ready = 1.262669
write_to_read_ratio_blp_rw_average = 0.061746
GrpLevelPara = 1.906258 

BW Util details:
bwutil = 0.039815 
total_CMD = 2854787 
util_bw = 113664 
Wasted_Col = 434613 
Wasted_Row = 184300 
Idle = 2122210 

BW Util Bottlenecks: 
RCDc_limit = 821887 
RCDWRc_limit = 18226 
WTRc_limit = 23112 
RTWc_limit = 46441 
CCDLc_limit = 47634 
rwq = 0 
CCDLc_limit_alone = 44181 
WTRc_limit_alone = 20880 
RTWc_limit_alone = 45220 

Commands details: 
total_CMD = 2854787 
n_nop = 2613500 
Read = 98304 
Write = 0 
L2_Alloc = 0 
L2_WB = 15360 
n_act = 70652 
n_pre = 70636 
n_ref = 0 
n_req = 102144 
total_req = 113664 

Dual Bus Interface Util: 
issued_total_row = 141288 
issued_total_col = 113664 
Row_Bus_Util =  0.049492 
CoL_Bus_Util = 0.039815 
Either_Row_CoL_Bus_Util = 0.084520 
Issued_on_Two_Bus_Simul_Util = 0.004787 
issued_two_Eff = 0.056634 
queue_avg = 0.890058 


dram_util_bins: 0 0 0 0 0 0 0 0 0 0
dram_eff_bins: 0 0 0 0 0 0 0 0 0 0
mrqq: max=64 avg=0.890058
Memory Partition 29: 
Cache L2_bank_058:
MSHR contents

Cache L2_bank_059:
MSHR contents

In Dram Latency Queue (total = 0): 
DRAM[29]: 16 bks, busW=16 BL=2 CL=14, tRRD=4 tCCD=1, tRCD=14 tRAS=33 tRP=14 tRC=47
n_cmd=2854787 n_nop=2613440 n_act=70676 n_pre=70660 n_ref_event=0 n_req=102144 n_rd=98304 n_rd_L2_A=0 n_write=0 n_wr_bk=15360 bw_util=0.03982
n_activity=925595 dram_eff=0.1228
bk0: 6144a 2685763i bk1: 6144a 2688125i bk2: 6144a 2685426i bk3: 6144a 2688805i bk4: 6144a 2686573i bk5: 6144a 2689135i bk6: 6144a 2683225i bk7: 6144a 2684804i bk8: 6144a 2682886i bk9: 6144a 2683063i bk10: 6144a 2687687i bk11: 6144a 2687180i bk12: 6144a 2683999i bk13: 6144a 2684845i bk14: 6144a 2686210i bk15: 6144a 2687586i 

------------------------------------------------------------------------

Row_Buffer_Locality = 0.308075
Row_Buffer_Locality_read = 0.305532
Row_Buffer_Locality_write = 0.373177
Bank_Level_Parallism = 3.826615
Bank_Level_Parallism_Col = 2.251610
Bank_Level_Parallism_Ready = 1.258076
write_to_read_ratio_blp_rw_average = 0.062180
GrpLevelPara = 1.905393 

BW Util details:
bwutil = 0.039815 
total_CMD = 2854787 
util_bw = 113664 
Wasted_Col = 435154 
Wasted_Row = 183794 
Idle = 2122175 

BW Util Bottlenecks: 
RCDc_limit = 822323 
RCDWRc_limit = 17779 
WTRc_limit = 23211 
RTWc_limit = 46494 
CCDLc_limit = 47456 
rwq = 0 
CCDLc_limit_alone = 44174 
WTRc_limit_alone = 21137 
RTWc_limit_alone = 45286 

Commands details: 
total_CMD = 2854787 
n_nop = 2613440 
Read = 98304 
Write = 0 
L2_Alloc = 0 
L2_WB = 15360 
n_act = 70676 
n_pre = 70660 
n_ref = 0 
n_req = 102144 
total_req = 113664 

Dual Bus Interface Util: 
issued_total_row = 141336 
issued_total_col = 113664 
Row_Bus_Util =  0.049508 
CoL_Bus_Util = 0.039815 
Either_Row_CoL_Bus_Util = 0.084541 
Issued_on_Two_Bus_Simul_Util = 0.004782 
issued_two_Eff = 0.056570 
queue_avg = 0.898589 


dram_util_bins: 0 0 0 0 0 0 0 0 0 0
dram_eff_bins: 0 0 0 0 0 0 0 0 0 0
mrqq: max=64 avg=0.898589
Memory Partition 30: 
Cache L2_bank_060:
MSHR contents

Cache L2_bank_061:
MSHR contents

In Dram Latency Queue (total = 0): 
DRAM[30]: 16 bks, busW=16 BL=2 CL=14, tRRD=4 tCCD=1, tRCD=14 tRAS=33 tRP=14 tRC=47
n_cmd=2854787 n_nop=2613761 n_act=70653 n_pre=70637 n_ref_event=0 n_req=102144 n_rd=98304 n_rd_L2_A=0 n_write=0 n_wr_bk=15360 bw_util=0.03982
n_activity=926358 dram_eff=0.1227
bk0: 6144a 2686031i bk1: 6144a 2689704i bk2: 6144a 2685181i bk3: 6144a 2687199i bk4: 6144a 2687016i bk5: 6144a 2688756i bk6: 6144a 2682551i bk7: 6144a 2683688i bk8: 6144a 2683001i bk9: 6144a 2684777i bk10: 6144a 2688084i bk11: 6144a 2688294i bk12: 6144a 2683301i bk13: 6144a 2686184i bk14: 6144a 2686137i bk15: 6144a 2689370i 

------------------------------------------------------------------------

Row_Buffer_Locality = 0.308300
Row_Buffer_Locality_read = 0.305908
Row_Buffer_Locality_write = 0.369531
Bank_Level_Parallism = 3.818450
Bank_Level_Parallism_Col = 2.240990
Bank_Level_Parallism_Ready = 1.264217
write_to_read_ratio_blp_rw_average = 0.062508
GrpLevelPara = 1.900819 

BW Util details:
bwutil = 0.039815 
total_CMD = 2854787 
util_bw = 113664 
Wasted_Col = 435549 
Wasted_Row = 183928 
Idle = 2121646 

BW Util Bottlenecks: 
RCDc_limit = 822079 
RCDWRc_limit = 18113 
WTRc_limit = 21351 
RTWc_limit = 45781 
CCDLc_limit = 47733 
rwq = 0 
CCDLc_limit_alone = 44639 
WTRc_limit_alone = 19439 
RTWc_limit_alone = 44599 

Commands details: 
total_CMD = 2854787 
n_nop = 2613761 
Read = 98304 
Write = 0 
L2_Alloc = 0 
L2_WB = 15360 
n_act = 70653 
n_pre = 70637 
n_ref = 0 
n_req = 102144 
total_req = 113664 

Dual Bus Interface Util: 
issued_total_row = 141290 
issued_total_col = 113664 
Row_Bus_Util =  0.049492 
CoL_Bus_Util = 0.039815 
Either_Row_CoL_Bus_Util = 0.084429 
Issued_on_Two_Bus_Simul_Util = 0.004879 
issued_two_Eff = 0.057786 
queue_avg = 0.905743 


dram_util_bins: 0 0 0 0 0 0 0 0 0 0
dram_eff_bins: 0 0 0 0 0 0 0 0 0 0
mrqq: max=64 avg=0.905743
Memory Partition 31: 
Cache L2_bank_062:
MSHR contents

Cache L2_bank_063:
MSHR contents

In Dram Latency Queue (total = 0): 
DRAM[31]: 16 bks, busW=16 BL=2 CL=14, tRRD=4 tCCD=1, tRCD=14 tRAS=33 tRP=14 tRC=47
n_cmd=2854787 n_nop=2613506 n_act=70662 n_pre=70646 n_ref_event=0 n_req=102144 n_rd=98304 n_rd_L2_A=0 n_write=0 n_wr_bk=15360 bw_util=0.03982
n_activity=926349 dram_eff=0.1227
bk0: 6144a 2686909i bk1: 6144a 2689548i bk2: 6144a 2684588i bk3: 6144a 2688399i bk4: 6144a 2686272i bk5: 6144a 2688173i bk6: 6144a 2682290i bk7: 6144a 2684702i bk8: 6144a 2682560i bk9: 6144a 2683676i bk10: 6144a 2687372i bk11: 6144a 2688207i bk12: 6144a 2683113i bk13: 6144a 2684861i bk14: 6144a 2685885i bk15: 6144a 2687966i 

------------------------------------------------------------------------

Row_Buffer_Locality = 0.308212
Row_Buffer_Locality_read = 0.305898
Row_Buffer_Locality_write = 0.367448
Bank_Level_Parallism = 3.824995
Bank_Level_Parallism_Col = 2.254313
Bank_Level_Parallism_Ready = 1.263065
write_to_read_ratio_blp_rw_average = 0.062307
GrpLevelPara = 1.904666 

BW Util details:
bwutil = 0.039815 
total_CMD = 2854787 
util_bw = 113664 
Wasted_Col = 434636 
Wasted_Row = 184829 
Idle = 2121658 

BW Util Bottlenecks: 
RCDc_limit = 821706 
RCDWRc_limit = 18038 
WTRc_limit = 22318 
RTWc_limit = 46535 
CCDLc_limit = 47687 
rwq = 0 
CCDLc_limit_alone = 44330 
WTRc_limit_alone = 20107 
RTWc_limit_alone = 45389 

Commands details: 
total_CMD = 2854787 
n_nop = 2613506 
Read = 98304 
Write = 0 
L2_Alloc = 0 
L2_WB = 15360 
n_act = 70662 
n_pre = 70646 
n_ref = 0 
n_req = 102144 
total_req = 113664 

Dual Bus Interface Util: 
issued_total_row = 141308 
issued_total_col = 113664 
Row_Bus_Util =  0.049499 
CoL_Bus_Util = 0.039815 
Either_Row_CoL_Bus_Util = 0.084518 
Issued_on_Two_Bus_Simul_Util = 0.004796 
issued_two_Eff = 0.056743 
queue_avg = 0.912139 


dram_util_bins: 0 0 0 0 0 0 0 0 0 0
dram_eff_bins: 0 0 0 0 0 0 0 0 0 0
mrqq: max=64 avg=0.912139

========= L2 cache stats =========
L2_cache_bank[0]: Access = 278528, Miss = 49152, Miss_rate = 0.176, Pending_hits = 18648, Reservation_fails = 10416
L2_cache_bank[1]: Access = 278528, Miss = 49152, Miss_rate = 0.176, Pending_hits = 18829, Reservation_fails = 10074
L2_cache_bank[2]: Access = 278528, Miss = 49152, Miss_rate = 0.176, Pending_hits = 18717, Reservation_fails = 10823
L2_cache_bank[3]: Access = 278528, Miss = 49152, Miss_rate = 0.176, Pending_hits = 18601, Reservation_fails = 10843
L2_cache_bank[4]: Access = 278528, Miss = 49152, Miss_rate = 0.176, Pending_hits = 18868, Reservation_fails = 9144
L2_cache_bank[5]: Access = 278528, Miss = 49152, Miss_rate = 0.176, Pending_hits = 18584, Reservation_fails = 9572
L2_cache_bank[6]: Access = 278528, Miss = 49152, Miss_rate = 0.176, Pending_hits = 18563, Reservation_fails = 9345
L2_cache_bank[7]: Access = 278528, Miss = 49152, Miss_rate = 0.176, Pending_hits = 18515, Reservation_fails = 9645
L2_cache_bank[8]: Access = 278528, Miss = 49152, Miss_rate = 0.176, Pending_hits = 18647, Reservation_fails = 10573
L2_cache_bank[9]: Access = 278528, Miss = 49152, Miss_rate = 0.176, Pending_hits = 18695, Reservation_fails = 9884
L2_cache_bank[10]: Access = 278528, Miss = 49152, Miss_rate = 0.176, Pending_hits = 18718, Reservation_fails = 11065
L2_cache_bank[11]: Access = 278528, Miss = 49152, Miss_rate = 0.176, Pending_hits = 18706, Reservation_fails = 11223
L2_cache_bank[12]: Access = 278528, Miss = 49152, Miss_rate = 0.176, Pending_hits = 18770, Reservation_fails = 10162
L2_cache_bank[13]: Access = 278528, Miss = 49152, Miss_rate = 0.176, Pending_hits = 18776, Reservation_fails = 9855
L2_cache_bank[14]: Access = 278528, Miss = 49152, Miss_rate = 0.176, Pending_hits = 18504, Reservation_fails = 10569
L2_cache_bank[15]: Access = 278528, Miss = 49152, Miss_rate = 0.176, Pending_hits = 18735, Reservation_fails = 9831
L2_cache_bank[16]: Access = 278528, Miss = 49152, Miss_rate = 0.176, Pending_hits = 18872, Reservation_fails = 9975
L2_cache_bank[17]: Access = 278528, Miss = 49152, Miss_rate = 0.176, Pending_hits = 18882, Reservation_fails = 10366
L2_cache_bank[18]: Access = 278528, Miss = 49152, Miss_rate = 0.176, Pending_hits = 18872, Reservation_fails = 10197
L2_cache_bank[19]: Access = 278528, Miss = 49152, Miss_rate = 0.176, Pending_hits = 18896, Reservation_fails = 10002
L2_cache_bank[20]: Access = 278528, Miss = 49152, Miss_rate = 0.176, Pending_hits = 18772, Reservation_fails = 9563
L2_cache_bank[21]: Access = 278528, Miss = 49152, Miss_rate = 0.176, Pending_hits = 18680, Reservation_fails = 9823
L2_cache_bank[22]: Access = 278528, Miss = 49152, Miss_rate = 0.176, Pending_hits = 18644, Reservation_fails = 9475
L2_cache_bank[23]: Access = 278528, Miss = 49152, Miss_rate = 0.176, Pending_hits = 18737, Reservation_fails = 9617
L2_cache_bank[24]: Access = 278528, Miss = 49152, Miss_rate = 0.176, Pending_hits = 18719, Reservation_fails = 9092
L2_cache_bank[25]: Access = 278528, Miss = 49152, Miss_rate = 0.176, Pending_hits = 18546, Reservation_fails = 10197
L2_cache_bank[26]: Access = 278528, Miss = 49152, Miss_rate = 0.176, Pending_hits = 18764, Reservation_fails = 9853
L2_cache_bank[27]: Access = 278528, Miss = 49152, Miss_rate = 0.176, Pending_hits = 18709, Reservation_fails = 9493
L2_cache_bank[28]: Access = 278528, Miss = 49152, Miss_rate = 0.176, Pending_hits = 18648, Reservation_fails = 10257
L2_cache_bank[29]: Access = 278528, Miss = 49152, Miss_rate = 0.176, Pending_hits = 18739, Reservation_fails = 9603
L2_cache_bank[30]: Access = 278528, Miss = 49152, Miss_rate = 0.176, Pending_hits = 18704, Reservation_fails = 8623
L2_cache_bank[31]: Access = 278528, Miss = 49152, Miss_rate = 0.176, Pending_hits = 18729, Reservation_fails = 9306
L2_cache_bank[32]: Access = 278528, Miss = 49152, Miss_rate = 0.176, Pending_hits = 18710, Reservation_fails = 10743
L2_cache_bank[33]: Access = 278528, Miss = 49152, Miss_rate = 0.176, Pending_hits = 18669, Reservation_fails = 10936
L2_cache_bank[34]: Access = 278528, Miss = 49152, Miss_rate = 0.176, Pending_hits = 18681, Reservation_fails = 11063
L2_cache_bank[35]: Access = 278528, Miss = 49152, Miss_rate = 0.176, Pending_hits = 18818, Reservation_fails = 10943
L2_cache_bank[36]: Access = 278528, Miss = 49152, Miss_rate = 0.176, Pending_hits = 18673, Reservation_fails = 10144
L2_cache_bank[37]: Access = 278528, Miss = 49152, Miss_rate = 0.176, Pending_hits = 18835, Reservation_fails = 9909
L2_cache_bank[38]: Access = 278528, Miss = 49152, Miss_rate = 0.176, Pending_hits = 18725, Reservation_fails = 10367
L2_cache_bank[39]: Access = 278528, Miss = 49152, Miss_rate = 0.176, Pending_hits = 18656, Reservation_fails = 10349
L2_cache_bank[40]: Access = 278528, Miss = 49152, Miss_rate = 0.176, Pending_hits = 18915, Reservation_fails = 10379
L2_cache_bank[41]: Access = 278528, Miss = 49152, Miss_rate = 0.176, Pending_hits = 18971, Reservation_fails = 10090
L2_cache_bank[42]: Access = 278528, Miss = 49152, Miss_rate = 0.176, Pending_hits = 18979, Reservation_fails = 10384
L2_cache_bank[43]: Access = 278528, Miss = 49152, Miss_rate = 0.176, Pending_hits = 18908, Reservation_fails = 10193
L2_cache_bank[44]: Access = 278528, Miss = 49152, Miss_rate = 0.176, Pending_hits = 18587, Reservation_fails = 9616
L2_cache_bank[45]: Access = 278528, Miss = 49152, Miss_rate = 0.176, Pending_hits = 18631, Reservation_fails = 10477
L2_cache_bank[46]: Access = 278528, Miss = 49152, Miss_rate = 0.176, Pending_hits = 18702, Reservation_fails = 10394
L2_cache_bank[47]: Access = 278528, Miss = 49152, Miss_rate = 0.176, Pending_hits = 18731, Reservation_fails = 10494
L2_cache_bank[48]: Access = 278528, Miss = 49152, Miss_rate = 0.176, Pending_hits = 18933, Reservation_fails = 10761
L2_cache_bank[49]: Access = 278528, Miss = 49152, Miss_rate = 0.176, Pending_hits = 19033, Reservation_fails = 11315
L2_cache_bank[50]: Access = 278528, Miss = 49152, Miss_rate = 0.176, Pending_hits = 19040, Reservation_fails = 11194
L2_cache_bank[51]: Access = 278528, Miss = 49152, Miss_rate = 0.176, Pending_hits = 18927, Reservation_fails = 11266
L2_cache_bank[52]: Access = 278528, Miss = 49152, Miss_rate = 0.176, Pending_hits = 18833, Reservation_fails = 11374
L2_cache_bank[53]: Access = 278528, Miss = 49152, Miss_rate = 0.176, Pending_hits = 18899, Reservation_fails = 10739
L2_cache_bank[54]: Access = 278528, Miss = 49152, Miss_rate = 0.176, Pending_hits = 18942, Reservation_fails = 10798
L2_cache_bank[55]: Access = 278528, Miss = 49152, Miss_rate = 0.176, Pending_hits = 19055, Reservation_fails = 11041
L2_cache_bank[56]: Access = 278528, Miss = 49152, Miss_rate = 0.176, Pending_hits = 18792, Reservation_fails = 11129
L2_cache_bank[57]: Access = 278528, Miss = 49152, Miss_rate = 0.176, Pending_hits = 18851, Reservation_fails = 10373
L2_cache_bank[58]: Access = 278528, Miss = 49152, Miss_rate = 0.176, Pending_hits = 18906, Reservation_fails = 10705
L2_cache_bank[59]: Access = 278528, Miss = 49152, Miss_rate = 0.176, Pending_hits = 18804, Reservation_fails = 10672
L2_cache_bank[60]: Access = 278528, Miss = 49152, Miss_rate = 0.176, Pending_hits = 18795, Reservation_fails = 10104
L2_cache_bank[61]: Access = 278528, Miss = 49152, Miss_rate = 0.176, Pending_hits = 18861, Reservation_fails = 9929
L2_cache_bank[62]: Access = 278528, Miss = 49152, Miss_rate = 0.176, Pending_hits = 18806, Reservation_fails = 10494
L2_cache_bank[63]: Access = 278528, Miss = 49152, Miss_rate = 0.176, Pending_hits = 18994, Reservation_fails = 10166
L2_total_cache_accesses = 17825792
L2_total_cache_misses = 3145728
L2_total_cache_miss_rate = 0.1765
L2_total_cache_pending_hits = 1201451
L2_total_cache_reservation_fails = 657007
L2_total_cache_breakdown:
	L2_cache_stats_breakdown[GLOBAL_ACC_R][HIT] = 12954325
	L2_cache_stats_breakdown[GLOBAL_ACC_R][HIT_RESERVED] = 1201451
	L2_cache_stats_breakdown[GLOBAL_ACC_R][MISS] = 786432
	L2_cache_stats_breakdown[GLOBAL_ACC_R][RESERVATION_FAIL] = 657007
	L2_cache_stats_breakdown[GLOBAL_ACC_R][SECTOR_MISS] = 2359296
	L2_cache_stats_breakdown[LOCAL_ACC_R][HIT] = 0
	L2_cache_stats_breakdown[LOCAL_ACC_R][HIT_RESERVED] = 0
	L2_cache_stats_breakdown[LOCAL_ACC_R][MISS] = 0
	L2_cache_stats_breakdown[LOCAL_ACC_R][RESERVATION_FAIL] = 0
	L2_cache_stats_breakdown[LOCAL_ACC_R][SECTOR_MISS] = 0
	L2_cache_stats_breakdown[CONST_ACC_R][HIT] = 0
	L2_cache_stats_breakdown[CONST_ACC_R][HIT_RESERVED] = 0
	L2_cache_stats_breakdown[CONST_ACC_R][MISS] = 0
	L2_cache_stats_breakdown[CONST_ACC_R][RESERVATION_FAIL] = 0
	L2_cache_stats_breakdown[CONST_ACC_R][SECTOR_MISS] = 0
	L2_cache_stats_breakdown[TEXTURE_ACC_R][HIT] = 0
	L2_cache_stats_breakdown[TEXTURE_ACC_R][HIT_RESERVED] = 0
	L2_cache_stats_breakdown[TEXTURE_ACC_R][MISS] = 0
	L2_cache_stats_breakdown[TEXTURE_ACC_R][RESERVATION_FAIL] = 0
	L2_cache_stats_breakdown[TEXTURE_ACC_R][SECTOR_MISS] = 0
	L2_cache_stats_breakdown[GLOBAL_ACC_W][HIT] = 524288
	L2_cache_stats_breakdown[GLOBAL_ACC_W][HIT_RESERVED] = 0
	L2_cache_stats_breakdown[GLOBAL_ACC_W][MISS] = 0
	L2_cache_stats_breakdown[GLOBAL_ACC_W][RESERVATION_FAIL] = 0
	L2_cache_stats_breakdown[GLOBAL_ACC_W][SECTOR_MISS] = 0
	L2_cache_stats_breakdown[LOCAL_ACC_W][HIT] = 0
	L2_cache_stats_breakdown[LOCAL_ACC_W][HIT_RESERVED] = 0
	L2_cache_stats_breakdown[LOCAL_ACC_W][MISS] = 0
	L2_cache_stats_breakdown[LOCAL_ACC_W][RESERVATION_FAIL] = 0
	L2_cache_stats_breakdown[LOCAL_ACC_W][SECTOR_MISS] = 0
	L2_cache_stats_breakdown[L1_WRBK_ACC][HIT] = 0
	L2_cache_stats_breakdown[L1_WRBK_ACC][HIT_RESERVED] = 0
	L2_cache_stats_breakdown[L1_WRBK_ACC][MISS] = 0
	L2_cache_stats_breakdown[L1_WRBK_ACC][RESERVATION_FAIL] = 0
	L2_cache_stats_breakdown[L1_WRBK_ACC][SECTOR_MISS] = 0
	L2_cache_stats_breakdown[L2_WRBK_ACC][HIT] = 0
	L2_cache_stats_breakdown[L2_WRBK_ACC][HIT_RESERVED] = 0
	L2_cache_stats_breakdown[L2_WRBK_ACC][MISS] = 0
	L2_cache_stats_breakdown[L2_WRBK_ACC][RESERVATION_FAIL] = 0
	L2_cache_stats_breakdown[L2_WRBK_ACC][SECTOR_MISS] = 0
	L2_cache_stats_breakdown[INST_ACC_R][HIT] = 0
	L2_cache_stats_breakdown[INST_ACC_R][HIT_RESERVED] = 0
	L2_cache_stats_breakdown[INST_ACC_R][MISS] = 0
	L2_cache_stats_breakdown[INST_ACC_R][RESERVATION_FAIL] = 0
	L2_cache_stats_breakdown[INST_ACC_R][SECTOR_MISS] = 0
	L2_cache_stats_breakdown[L1_WR_ALLOC_R][HIT] = 0
	L2_cache_stats_breakdown[L1_WR_ALLOC_R][HIT_RESERVED] = 0
	L2_cache_stats_breakdown[L1_WR_ALLOC_R][MISS] = 0
	L2_cache_stats_breakdown[L1_WR_ALLOC_R][RESERVATION_FAIL] = 0
	L2_cache_stats_breakdown[L1_WR_ALLOC_R][SECTOR_MISS] = 0
	L2_cache_stats_breakdown[L2_WR_ALLOC_R][HIT] = 0
	L2_cache_stats_breakdown[L2_WR_ALLOC_R][HIT_RESERVED] = 0
	L2_cache_stats_breakdown[L2_WR_ALLOC_R][MISS] = 0
	L2_cache_stats_breakdown[L2_WR_ALLOC_R][RESERVATION_FAIL] = 0
	L2_cache_stats_breakdown[L2_WR_ALLOC_R][SECTOR_MISS] = 0
	L2_cache_stats_breakdown[GLOBAL_ACC_R][TOTAL_ACCESS] = 17301504
	L2_cache_stats_breakdown[GLOBAL_ACC_W][TOTAL_ACCESS] = 524288
L2_total_cache_reservation_fail_breakdown:
	L2_cache_stats_fail_breakdown[GLOBAL_ACC_R][MSHR_MERGE_ENRTY_FAIL] = 657007
L2_cache_data_port_util = 0.061
L2_cache_fill_port_util = 0.014

icnt_total_pkts_mem_to_simt=17825792
icnt_total_pkts_simt_to_mem=17825792
LD_mem_lat_dist  0 0 0 0 0 0 0 0 0 0 0 0 0 0 0 0 0 0 0 0 0 0 0 0 0 0 0
ST_mem_lat_dist  0 0 0 0 0 0 0 0 0 0 0 0 0 0 0 0 0 0 0 0 0 0 0 0 0 0 0
----------------------------Interconnect-DETAILS--------------------------------
Req_Network_injected_packets_num = 17825792
Req_Network_cycles = 3425745
Req_Network_injected_packets_per_cycle =       5.2035 
Req_Network_conflicts_per_cycle =       2.6375
Req_Network_conflicts_per_cycle_util =       3.4555
Req_Bank_Level_Parallism =       6.8173
Req_Network_in_buffer_full_per_cycle =       0.0000
Req_Network_in_buffer_avg_util =       2.1727
Req_Network_out_buffer_full_per_cycle =       0.0009
Req_Network_out_buffer_avg_util =       0.3336

Reply_Network_injected_packets_num = 17825792
Reply_Network_cycles = 3425745
Reply_Network_injected_packets_per_cycle =        5.2035
Reply_Network_conflicts_per_cycle =        8.8736
Reply_Network_conflicts_per_cycle_util =      11.7573
Reply_Bank_Level_Parallism =       6.8945
Reply_Network_in_buffer_full_per_cycle =       0.0000
Reply_Network_in_buffer_avg_util =       3.3118
Reply_Network_out_buffer_full_per_cycle =       0.0000
Reply_Network_out_buffer_avg_util =       0.0650
----------------------------END-of-Interconnect-DETAILS-------------------------


gpgpu_simulation_time = 0 days, 7 hrs, 49 min, 30 sec (28170 sec)
gpgpu_simulation_rate = 433886 (inst/sec)
gpgpu_simulation_rate = 121 (cycle/sec)
gpgpu_silicon_slowdown = 9917355x
GPGPU-Sim: *** exit detected ***
