

        *** GPGPU-Sim Simulator Version 4.0.0  [build gpgpu-sim_git-commit-255ae3d804d12f3d4a005553a5a307bb03061c3c_modified_4.0] ***


GPGPU-Sim PTX: simulation mode 0 (can change with PTX_SIM_MODE_FUNC environment variable:
               1=functional simulation only, 0=detailed performance simulator)
GPGPU-Sim PTX: overriding embedded ptx with ptx file (PTX_SIM_USE_PTX_FILE is set)
GPGPU-Sim: Configuration options:

-save_embedded_ptx                      0 # saves ptx files embedded in binary as <n>.ptx
-keep                                   0 # keep intermediate files created by GPGPU-Sim when interfacing with external programs
-gpgpu_ptx_save_converted_ptxplus                    0 # Saved converted ptxplus to a file
-gpgpu_occupancy_sm_number                   70 # The SM number to pass to ptxas when getting register usage for computing GPU occupancy. This parameter is required in the config.
-ptx_opcode_latency_int      4,13,4,5,145,21 # Opcode latencies for integers <ADD,MAX,MUL,MAD,DIV,SHFL>Default 1,1,19,25,145,32
-ptx_opcode_latency_fp          4,13,4,5,39 # Opcode latencies for single precision floating points <ADD,MAX,MUL,MAD,DIV>Default 1,1,1,1,30
-ptx_opcode_latency_dp         8,19,8,8,330 # Opcode latencies for double precision floating points <ADD,MAX,MUL,MAD,DIV>Default 8,8,8,8,335
-ptx_opcode_latency_sfu                  100 # Opcode latencies for SFU instructionsDefault 8
-ptx_opcode_latency_tesnor                   64 # Opcode latencies for Tensor instructionsDefault 64
-ptx_opcode_initiation_int          2,2,2,2,8,4 # Opcode initiation intervals for integers <ADD,MAX,MUL,MAD,DIV,SHFL>Default 1,1,4,4,32,4
-ptx_opcode_initiation_fp            2,2,2,2,4 # Opcode initiation intervals for single precision floating points <ADD,MAX,MUL,MAD,DIV>Default 1,1,1,1,5
-ptx_opcode_initiation_dp          4,4,4,4,130 # Opcode initiation intervals for double precision floating points <ADD,MAX,MUL,MAD,DIV>Default 8,8,8,8,130
-ptx_opcode_initiation_sfu                    8 # Opcode initiation intervals for sfu instructionsDefault 8
-ptx_opcode_initiation_tensor                   64 # Opcode initiation intervals for tensor instructionsDefault 64
-cdp_latency         7200,8000,100,12000,1600 # CDP API latency <cudaStreamCreateWithFlags, cudaGetParameterBufferV2_init_perWarp, cudaGetParameterBufferV2_perKernel, cudaLaunchDeviceV2_init_perWarp, cudaLaunchDevicV2_perKernel>Default 7200,8000,100,12000,1600
-network_mode                           2 # Interconnection network mode
-inter_config_file                   mesh # Interconnection network config file
-icnt_in_buffer_limit                  512 # in_buffer_limit
-icnt_out_buffer_limit                  512 # out_buffer_limit
-icnt_subnets                           2 # subnets
-icnt_arbiter_algo                      1 # arbiter_algo
-icnt_verbose                           0 # inct_verbose
-icnt_grant_cycles                      1 # grant_cycles
-gpgpu_ptx_use_cuobjdump                    1 # Use cuobjdump to extract ptx and sass from binaries
-gpgpu_experimental_lib_support                    0 # Try to extract code from cuda libraries [Broken because of unknown cudaGetExportTable]
-checkpoint_option                      0 #  checkpointing flag (0 = no checkpoint)
-checkpoint_kernel                      1 #  checkpointing during execution of which kernel (1- 1st kernel)
-checkpoint_CTA                         0 #  checkpointing after # of CTA (< less than total CTA)
-resume_option                          0 #  resume flag (0 = no resume)
-resume_kernel                          0 #  Resume from which kernel (1= 1st kernel)
-resume_CTA                             0 #  resume from which CTA 
-checkpoint_CTA_t                       0 #  resume from which CTA 
-checkpoint_insn_Y                      0 #  resume from which CTA 
-gpgpu_ptx_convert_to_ptxplus                    0 # Convert SASS (native ISA) to ptxplus and run ptxplus
-gpgpu_ptx_force_max_capability                   70 # Force maximum compute capability
-gpgpu_ptx_inst_debug_to_file                    0 # Dump executed instructions' debug information to file
-gpgpu_ptx_inst_debug_file       inst_debug.txt # Executed instructions' debug output file
-gpgpu_ptx_inst_debug_thread_uid                    1 # Thread UID for executed instructions' debug output
-gpgpu_simd_model                       1 # 1 = post-dominator
-gpgpu_shader_core_pipeline              2048:32 # shader core pipeline config, i.e., {<nthread>:<warpsize>}
-gpgpu_tex_cache:l1  N:4:128:256,L:R:m:N:L,T:512:8,128:2 # per-shader L1 texture cache  (READ-ONLY) config  {<nsets>:<bsize>:<assoc>,<rep>:<wr>:<alloc>:<wr_alloc>,<mshr>:<N>:<merge>,<mq>:<rf>}
-gpgpu_const_cache:l1 N:128:64:8,L:R:f:N:L,S:2:64,4 # per-shader L1 constant memory cache  (READ-ONLY) config  {<nsets>:<bsize>:<assoc>,<rep>:<wr>:<alloc>:<wr_alloc>,<mshr>:<N>:<merge>,<mq>} 
-gpgpu_cache:il1     N:64:128:16,L:R:f:N:L,S:2:48,4 # shader L1 instruction cache config  {<nsets>:<bsize>:<assoc>,<rep>:<wr>:<alloc>:<wr_alloc>,<mshr>:<N>:<merge>,<mq>} 
-gpgpu_cache:dl1     S:1:128:256,L:L:s:N:L,A:256:8,16:0,32 # per-shader L1 data cache config  {<nsets>:<bsize>:<assoc>,<rep>:<wr>:<alloc>:<wr_alloc>,<mshr>:<N>:<merge>,<mq> | none}
-gpgpu_l1_banks                         4 # The number of L1 cache banks
-gpgpu_l1_banks_byte_interleaving                   32 # l1 banks byte interleaving granularity
-gpgpu_l1_banks_hashing_function                    0 # l1 banks hashing function
-gpgpu_l1_latency                      20 # L1 Hit Latency
-gpgpu_smem_latency                    20 # smem Latency
-gpgpu_cache:dl1PrefL1                 none # per-shader L1 data cache config  {<nsets>:<bsize>:<assoc>,<rep>:<wr>:<alloc>:<wr_alloc>,<mshr>:<N>:<merge>,<mq> | none}
-gpgpu_cache:dl1PrefShared                 none # per-shader L1 data cache config  {<nsets>:<bsize>:<assoc>,<rep>:<wr>:<alloc>:<wr_alloc>,<mshr>:<N>:<merge>,<mq> | none}
-gpgpu_gmem_skip_L1D                    0 # global memory access skip L1D cache (implements -Xptxas -dlcm=cg, default=no skip)
-gpgpu_perfect_mem                      0 # enable perfect memory mode (no cache miss)
-n_regfile_gating_group                    4 # group of lanes that should be read/written together)
-gpgpu_clock_gated_reg_file                    0 # enable clock gated reg file for power calculations
-gpgpu_clock_gated_lanes                    0 # enable clock gated lanes for power calculations
-gpgpu_shader_registers                65536 # Number of registers per shader core. Limits number of concurrent CTAs. (default 8192)
-gpgpu_registers_per_block                65536 # Maximum number of registers per CTA. (default 8192)
-gpgpu_ignore_resources_limitation                    0 # gpgpu_ignore_resources_limitation (default 0)
-gpgpu_shader_cta                      32 # Maximum number of concurrent CTAs in shader (default 8)
-gpgpu_num_cta_barriers                   16 # Maximum number of named barriers per CTA (default 16)
-gpgpu_n_clusters                      80 # number of processing clusters
-gpgpu_n_cores_per_cluster                    1 # number of simd cores per cluster
-gpgpu_n_cluster_ejection_buffer_size                   32 # number of packets in ejection buffer
-gpgpu_n_ldst_response_buffer_size                    2 # number of response packets in ld/st unit ejection buffer
-gpgpu_shmem_per_block                65536 # Size of shared memory per thread block or CTA (default 48kB)
-gpgpu_shmem_size                   98304 # Size of shared memory per shader core (default 16kB)
-gpgpu_adaptive_cache_config                    1 # adaptive_cache_config
-gpgpu_shmem_sizeDefault                98304 # Size of shared memory per shader core (default 16kB)
-gpgpu_shmem_size_PrefL1                16384 # Size of shared memory per shader core (default 16kB)
-gpgpu_shmem_size_PrefShared                16384 # Size of shared memory per shader core (default 16kB)
-gpgpu_shmem_num_banks                   32 # Number of banks in the shared memory in each shader core (default 16)
-gpgpu_shmem_limited_broadcast                    0 # Limit shared memory to do one broadcast per cycle (default on)
-gpgpu_shmem_warp_parts                    1 # Number of portions a warp is divided into for shared memory bank conflict check 
-gpgpu_mem_unit_ports                    1 # The number of memory transactions allowed per core cycle
-gpgpu_shmem_warp_parts                    1 # Number of portions a warp is divided into for shared memory bank conflict check 
-gpgpu_warpdistro_shader                   -1 # Specify which shader core to collect the warp size distribution from
-gpgpu_warp_issue_shader                    0 # Specify which shader core to collect the warp issue distribution from
-gpgpu_local_mem_map                    1 # Mapping from local memory space address to simulated GPU physical address space (default = enabled)
-gpgpu_num_reg_banks                   16 # Number of register banks (default = 8)
-gpgpu_reg_bank_use_warp_id                    0 # Use warp ID in mapping registers to banks (default = off)
-gpgpu_sub_core_model                    1 # Sub Core Volta/Pascal model (default = off)
-gpgpu_enable_specialized_operand_collector                    0 # enable_specialized_operand_collector
-gpgpu_operand_collector_num_units_sp                    4 # number of collector units (default = 4)
-gpgpu_operand_collector_num_units_dp                    0 # number of collector units (default = 0)
-gpgpu_operand_collector_num_units_sfu                    4 # number of collector units (default = 4)
-gpgpu_operand_collector_num_units_int                    0 # number of collector units (default = 0)
-gpgpu_operand_collector_num_units_tensor_core                    4 # number of collector units (default = 4)
-gpgpu_operand_collector_num_units_mem                    2 # number of collector units (default = 2)
-gpgpu_operand_collector_num_units_gen                    8 # number of collector units (default = 0)
-gpgpu_operand_collector_num_in_ports_sp                    1 # number of collector unit in ports (default = 1)
-gpgpu_operand_collector_num_in_ports_dp                    0 # number of collector unit in ports (default = 0)
-gpgpu_operand_collector_num_in_ports_sfu                    1 # number of collector unit in ports (default = 1)
-gpgpu_operand_collector_num_in_ports_int                    0 # number of collector unit in ports (default = 0)
-gpgpu_operand_collector_num_in_ports_tensor_core                    1 # number of collector unit in ports (default = 1)
-gpgpu_operand_collector_num_in_ports_mem                    1 # number of collector unit in ports (default = 1)
-gpgpu_operand_collector_num_in_ports_gen                    8 # number of collector unit in ports (default = 0)
-gpgpu_operand_collector_num_out_ports_sp                    1 # number of collector unit in ports (default = 1)
-gpgpu_operand_collector_num_out_ports_dp                    0 # number of collector unit in ports (default = 0)
-gpgpu_operand_collector_num_out_ports_sfu                    1 # number of collector unit in ports (default = 1)
-gpgpu_operand_collector_num_out_ports_int                    0 # number of collector unit in ports (default = 0)
-gpgpu_operand_collector_num_out_ports_tensor_core                    1 # number of collector unit in ports (default = 1)
-gpgpu_operand_collector_num_out_ports_mem                    1 # number of collector unit in ports (default = 1)
-gpgpu_operand_collector_num_out_ports_gen                    8 # number of collector unit in ports (default = 0)
-gpgpu_coalesce_arch                   60 # Coalescing arch (GT200 = 13, Fermi = 20)
-gpgpu_num_sched_per_core                    4 # Number of warp schedulers per core
-gpgpu_max_insn_issue_per_warp                    1 # Max number of instructions that can be issued per warp in one cycle by scheduler (either 1 or 2)
-gpgpu_dual_issue_diff_exec_units                    1 # should dual issue use two different execution unit resources (Default = 1)
-gpgpu_simt_core_sim_order                    1 # Select the simulation order of cores in a cluster (0=Fix, 1=Round-Robin)
-gpgpu_pipeline_widths 4,4,4,4,4,4,4,4,4,4,8,4,4 # Pipeline widths ID_OC_SP,ID_OC_DP,ID_OC_INT,ID_OC_SFU,ID_OC_MEM,OC_EX_SP,OC_EX_DP,OC_EX_INT,OC_EX_SFU,OC_EX_MEM,EX_WB,ID_OC_TENSOR_CORE,OC_EX_TENSOR_CORE
-gpgpu_tensor_core_avail                    0 # Tensor Core Available (default=0)
-gpgpu_num_sp_units                     4 # Number of SP units (default=1)
-gpgpu_num_dp_units                     4 # Number of DP units (default=0)
-gpgpu_num_int_units                    4 # Number of INT units (default=0)
-gpgpu_num_sfu_units                    4 # Number of SF units (default=1)
-gpgpu_num_tensor_core_units                    0 # Number of tensor_core units (default=1)
-gpgpu_num_mem_units                    1 # Number if ldst units (default=1) WARNING: not hooked up to anything
-gpgpu_scheduler                      gto # Scheduler configuration: < lrr | gto | two_level_active > If two_level_active:<num_active_warps>:<inner_prioritization>:<outer_prioritization>For complete list of prioritization values see shader.h enum scheduler_prioritization_typeDefault: gto
-gpgpu_concurrent_kernel_sm                    0 # Support concurrent kernels on a SM (default = disabled)
-gpgpu_perfect_inst_const_cache                    1 # perfect inst and const cache mode, so all inst and const hits in the cache(default = disabled)
-gpgpu_inst_fetch_throughput                    4 # the number of fetched intruction per warp each cycle
-gpgpu_reg_file_port_throughput                    2 # the number ports of the register file
-specialized_unit_1         0,4,4,4,4,BRA # specialized unit config {<enabled>,<num_units>:<latency>:<initiation>,<ID_OC_SPEC>:<OC_EX_SPEC>,<NAME>}
-specialized_unit_2         0,4,4,4,4,BRA # specialized unit config {<enabled>,<num_units>:<latency>:<initiation>,<ID_OC_SPEC>:<OC_EX_SPEC>,<NAME>}
-specialized_unit_3         0,4,4,4,4,BRA # specialized unit config {<enabled>,<num_units>:<latency>:<initiation>,<ID_OC_SPEC>:<OC_EX_SPEC>,<NAME>}
-specialized_unit_4         0,4,4,4,4,BRA # specialized unit config {<enabled>,<num_units>:<latency>:<initiation>,<ID_OC_SPEC>:<OC_EX_SPEC>,<NAME>}
-specialized_unit_5         0,4,4,4,4,BRA # specialized unit config {<enabled>,<num_units>:<latency>:<initiation>,<ID_OC_SPEC>:<OC_EX_SPEC>,<NAME>}
-specialized_unit_6         0,4,4,4,4,BRA # specialized unit config {<enabled>,<num_units>:<latency>:<initiation>,<ID_OC_SPEC>:<OC_EX_SPEC>,<NAME>}
-specialized_unit_7         0,4,4,4,4,BRA # specialized unit config {<enabled>,<num_units>:<latency>:<initiation>,<ID_OC_SPEC>:<OC_EX_SPEC>,<NAME>}
-specialized_unit_8         0,4,4,4,4,BRA # specialized unit config {<enabled>,<num_units>:<latency>:<initiation>,<ID_OC_SPEC>:<OC_EX_SPEC>,<NAME>}
-gpgpu_perf_sim_memcpy                    1 # Fill the L2 cache on memcpy
-gpgpu_simple_dram_model                    0 # simple_dram_model with fixed latency and BW
-gpgpu_dram_scheduler                    1 # 0 = fifo, 1 = FR-FCFS (defaul)
-gpgpu_dram_partition_queues          64:64:64:64 # i2$:$2d:d2$:$2i
-l2_ideal                               0 # Use a ideal L2 cache that always hit
-gpgpu_cache:dl2     S:32:128:24,L:B:m:L:P,A:192:4,32:0,32 # unified banked L2 data cache config  {<nsets>:<bsize>:<assoc>,<rep>:<wr>:<alloc>:<wr_alloc>,<mshr>:<N>:<merge>,<mq>}
-gpgpu_cache:dl2_texture_only                    0 # L2 cache used for texture only
-gpgpu_n_mem                           32 # number of memory modules (e.g. memory controllers) in gpu
-gpgpu_n_sub_partition_per_mchannel                    2 # number of memory subpartition in each memory module
-gpgpu_n_mem_per_ctrlr                    1 # number of memory chips per memory controller
-gpgpu_memlatency_stat                   14 # track and display latency statistics 0x2 enables MC, 0x4 enables queue logs
-gpgpu_frfcfs_dram_sched_queue_size                   64 # 0 = unlimited (default); # entries per chip
-gpgpu_dram_return_queue_size                  192 # 0 = unlimited (default); # entries per chip
-gpgpu_dram_buswidth                   16 # default = 4 bytes (8 bytes per cycle at DDR)
-gpgpu_dram_burst_length                    2 # Burst length of each DRAM request (default = 4 data bus cycle)
-dram_data_command_freq_ratio                    2 # Frequency ratio between DRAM data bus and command bus (default = 2 times, i.e. DDR)
-gpgpu_dram_timing_opt nbk=16:CCD=1:RRD=4:RCD=14:RAS=33:RP=14:RC=47: CL=14:WL=2:CDLR=3:WR=12:nbkgrp=4:CCDL=2:RTPL=4 # DRAM timing parameters = {nbk:tCCD:tRRD:tRCD:tRAS:tRP:tRC:CL:WL:tCDLR:tWR:nbkgrp:tCCDL:tRTPL}
-gpgpu_l2_rop_latency                  160 # ROP queue latency (default 85)
-dram_latency                         100 # DRAM latency (default 30)
-dram_dual_bus_interface                    1 # dual_bus_interface (default = 0) 
-dram_bnk_indexing_policy                    0 # dram_bnk_indexing_policy (0 = normal indexing, 1 = Xoring with the higher bits) (Default = 0)
-dram_bnkgrp_indexing_policy                    1 # dram_bnkgrp_indexing_policy (0 = take higher bits, 1 = take lower bits) (Default = 0)
-dram_seperate_write_queue_enable                    0 # Seperate_Write_Queue_Enable
-dram_write_queue_size             32:28:16 # Write_Queue_Size
-dram_elimnate_rw_turnaround                    0 # elimnate_rw_turnaround i.e set tWTR and tRTW = 0
-icnt_flit_size                        40 # icnt_flit_size
-gpgpu_mem_addr_mapping dramid@8;00000000.00000000.00000000.00000000.0000RRRR.RRRRRRRR.RBBBCCCB.CCCSSSSS # mapping memory address to dram model {dramid@<start bit>;<memory address map>}
-gpgpu_mem_addr_test                    0 # run sweep test to check address mapping for aliased address
-gpgpu_mem_address_mask                    1 # 0 = old addressing mask, 1 = new addressing mask, 2 = new add. mask + flipped bank sel and chip sel bits
-gpgpu_memory_partition_indexing                    2 # 0 = no indexing, 1 = bitwise xoring, 2 = IPoly, 3 = custom indexing
-gpuwattch_xml_file         gpuwattch.xml # GPUWattch XML file
-power_simulation_enabled                    0 # Turn on power simulator (1=On, 0=Off)
-power_per_cycle_dump                    0 # Dump detailed power output each cycle
-power_trace_enabled                    0 # produce a file for the power trace (1=On, 0=Off)
-power_trace_zlevel                     6 # Compression level of the power trace output log (0=no comp, 9=highest)
-steady_power_levels_enabled                    0 # produce a file for the steady power levels (1=On, 0=Off)
-steady_state_definition                  8:4 # allowed deviation:number of samples
-gpgpu_max_cycle                        0 # terminates gpu simulation early (0 = no limit)
-gpgpu_max_insn                         0 # terminates gpu simulation early (0 = no limit)
-gpgpu_max_cta                          0 # terminates gpu simulation early (0 = no limit)
-gpgpu_max_completed_cta                    0 # terminates gpu simulation early (0 = no limit)
-gpgpu_runtime_stat                   500 # display runtime statistics such as dram utilization {<freq>:<flag>}
-liveness_message_freq                    1 # Minimum number of seconds between simulation liveness messages (0 = always print)
-gpgpu_compute_capability_major                    7 # Major compute capability version number
-gpgpu_compute_capability_minor                    0 # Minor compute capability version number
-gpgpu_flush_l1_cache                    1 # Flush L1 cache at the end of each kernel call
-gpgpu_flush_l2_cache                    0 # Flush L2 cache at the end of each kernel call
-gpgpu_deadlock_detect                    1 # Stop the simulation at deadlock (1=on (default), 0=off)
-gpgpu_ptx_instruction_classification                    0 # if enabled will classify ptx instruction types per kernel (Max 255 kernels now)
-gpgpu_ptx_sim_mode                     0 # Select between Performance (default) or Functional simulation (1)
-gpgpu_clock_domains 1200.0:1200.0:1200.0:1000.0 # Clock Domain Frequencies in MhZ {<Core Clock>:<ICNT Clock>:<L2 Clock>:<DRAM Clock>}
-gpgpu_max_concurrent_kernel                    8 # maximum kernels that can run concurrently on GPU
-gpgpu_cflog_interval                    0 # Interval between each snapshot in control flow logger
-visualizer_enabled                     0 # Turn on visualizer output (1=On, 0=Off)
-visualizer_outputfile                 NULL # Specifies the output log file for visualizer
-visualizer_zlevel                      6 # Compression level of the visualizer output log (0=no comp, 9=highest)
-gpgpu_stack_size_limit                 1024 # GPU thread stack size
-gpgpu_heap_size_limit              8388608 # GPU malloc heap size1f530c4048b7f66ab8389d3f0830e9e3  /home/akamath/Documents/gpgpu-sim_hammerblade/precompiled_bin/stencil
Extracting PTX file and ptxas options    1: stencil.1.sm_52.ptx -arch=sm_52
 
-gpgpu_runtime_sync_depth_limit                    2 # GPU device runtime synchronize depth
-gpgpu_runtime_pending_launch_count_limit                 2048 # GPU device runtime pending launch count
-trace_enabled                          0 # Turn on traces
-trace_components                    none # comma seperated list of traces to enable. Complete list found in trace_streams.tup. Default none
-trace_sampling_core                    0 # The core which is printed using CORE_DPRINTF. Default 0
-trace_sampling_memory_partition                   -1 # The memory partition which is printed using MEMPART_DPRINTF. Default -1 (i.e. all)
-enable_ptx_file_line_stats                    1 # Turn on PTX source line statistic profiling. (1 = On)
-ptx_line_stats_filename gpgpu_inst_stats.txt # Output file for PTX source line statistics.
-gpgpu_kernel_launch_latency                 5000 # Kernel launch latency in cycles. Default: 0
-gpgpu_cdp_enabled                      0 # Turn on CDP
-gpgpu_TB_launch_latency                    0 # thread block launch latency in cycles. Default: 0
DRAM Timing Options:
nbk                                    16 # number of banks
CCD                                     1 # column to column delay
RRD                                     4 # minimal delay between activation of rows in different banks
RCD                                    14 # row to column delay
RAS                                    33 # time needed to activate row
RP                                     14 # time needed to precharge (deactivate) row
RC                                     47 # row cycle time
CDLR                                    3 # switching from write to read (changes tWTR)
WR                                     12 # last data-in to row precharge
CL                                     14 # CAS latency
WL                                      2 # Write latency
nbkgrp                                  4 # number of bank groups
CCDL                                    2 # column to column delay between accesses to different bank groups
RTPL                                    4 # read to precharge delay between accesses to different bank groups
Total number of memory sub partition = 64
addr_dec_mask[CHIP]  = 0000000000001f00 	high:13 low:8
addr_dec_mask[BK]    = 00000000000e2000 	high:20 low:13
addr_dec_mask[ROW]   = 00000001fff00000 	high:33 low:20
addr_dec_mask[COL]   = 000000000001c0ff 	high:17 low:0
addr_dec_mask[BURST] = 000000000000001f 	high:5 low:0
sub_partition_id_mask = 0000000000002000
GPGPU-Sim uArch: clock freqs: 1200000000.000000:1200000000.000000:1200000000.000000:1000000000.000000
GPGPU-Sim uArch: clock periods: 0.00000000083333333333:0.00000000083333333333:0.00000000083333333333:0.00000000100000000000
*** Initializing Memory Statistics ***
GPGPU-Sim uArch: performance model initialization complete.
self exe links to: /home/akamath/Documents/gpgpu-sim_hammerblade/precompiled_bin/stencil
self exe links to: /home/akamath/Documents/gpgpu-sim_hammerblade/precompiled_bin/stencil
11.0
GPGPU-Sim PTX: __cudaRegisterFatBinary, fat_cubin_handle = 1, filename=default
self exe links to: /home/akamath/Documents/gpgpu-sim_hammerblade/precompiled_bin/stencil
Running md5sum using "md5sum /home/akamath/Documents/gpgpu-sim_hammerblade/precompiled_bin/stencil "
self exe links to: /home/akamath/Documents/gpgpu-sim_hammerblade/precompiled_bin/stencil
Extracting specific PTX file named stencil.1.sm_52.ptx 
GPGPU-Sim PTX: __cudaRegisterFunction _Z24block2D_hybrid_coarsen_xffPfS_iii : hostFun 0x0x555d14187cc0, fat_cubin_handle = 1
GPGPU-Sim PTX: Parsing stencil.1.sm_52.ptx
GPGPU-Sim PTX: allocating shared region for "sh_A0" from 0x0 to 0x0 (shared memory space)
GPGPU-Sim PTX: instruction assembly for function '_Z24block2D_hybrid_coarsen_xffPfS_iii'...   done.
GPGPU-Sim PTX: finished parsing EMBEDDED .ptx file stencil.1.sm_52.ptx
GPGPU-Sim PTX: loading globals with explicit initializers... 
GPGPU-Sim PTX: finished loading globals (0 bytes total).
GPGPU-Sim PTX: loading constants with explicit initializers...  done.
GPGPU-Sim PTX: Loading PTXInfo from stencil.1.sm_52.ptx
GPGPU-Sim PTX: Kernel '_Z24block2D_hybrid_coarsen_xffPfS_iii' : regs=32, lmem=0, smem=0, cmem=356
CUDA accelerated 7 points stencil codes****
Original version by Li-Wen Chang <lchang20@illinois.edu> and I-Jui Sung<sung10@illinois.edu>
This version maintained by Chris Rodrigues  ***********
event update
GPGPU-Sim PTX: Setting up arguments for 4 bytes starting at 0x7ffe6df91ec4..
GPGPU-Sim PTX: Setting up arguments for 4 bytes starting at 0x7ffe6df91ec8..
GPGPU-Sim PTX: Setting up arguments for 8 bytes starting at 0x7ffe6df91ee8..
GPGPU-Sim PTX: Setting up arguments for 8 bytes starting at 0x7ffe6df91ef0..
GPGPU-Sim PTX: Setting up arguments for 4 bytes starting at 0x7ffe6df91ecc..
GPGPU-Sim PTX: Setting up arguments for 4 bytes starting at 0x7ffe6df91ed0..
GPGPU-Sim PTX: Setting up arguments for 4 bytes starting at 0x7ffe6df91ed4..

GPGPU-Sim PTX: cudaLaunch for 0x0x555d14187cc0 (mode=performance simulation) on stream 0
GPGPU-Sim PTX: finding reconvergence points for '_Z24block2D_hybrid_coarsen_xffPfS_iii'...
GPGPU-Sim PTX: Finding dominators for '_Z24block2D_hybrid_coarsen_xffPfS_iii'...
GPGPU-Sim PTX: Finding immediate dominators for '_Z24block2D_hybrid_coarsen_xffPfS_iii'...
GPGPU-Sim PTX: Finding postdominators for '_Z24block2D_hybrid_coarsen_xffPfS_iii'...
GPGPU-Sim PTX: Finding immediate postdominators for '_Z24block2D_hybrid_coarsen_xffPfS_iii'...
GPGPU-Sim PTX: pre-decoding instructions for '_Z24block2D_hybrid_coarsen_xffPfS_iii'...
GPGPU-Sim PTX: reconvergence points for _Z24block2D_hybrid_coarsen_xffPfS_iii...
GPGPU-Sim PTX:  1 (potential) branch divergence @  PC=0x140 (stencil.1.sm_52.ptx:72) @%p7 bra $L__BB0_2;
GPGPU-Sim PTX:    immediate post dominator      @  PC=0x198 (stencil.1.sm_52.ptx:86) setp.lt.s32 %p8, %r6, %r49;
GPGPU-Sim PTX:  2 (potential) branch divergence @  PC=0x1b0 (stencil.1.sm_52.ptx:89) @%p10 bra $L__BB0_4;
GPGPU-Sim PTX:    immediate post dominator      @  PC=0x208 (stencil.1.sm_52.ptx:103) bar.sync 0;
GPGPU-Sim PTX:  3 (potential) branch divergence @  PC=0x218 (stencil.1.sm_52.ptx:105) @%p11 bra $L__BB0_33;
GPGPU-Sim PTX:    immediate post dominator      @  PC=0x6f0 (stencil.1.sm_52.ptx:310) ret;
GPGPU-Sim PTX:  4 (potential) branch divergence @  PC=0x3d0 (stencil.1.sm_52.ptx:163) @%p7 bra $L__BB0_8;
GPGPU-Sim PTX:    immediate post dominator      @  PC=0x3f0 (stencil.1.sm_52.ptx:170) @%p21 bra $L__BB0_19;
GPGPU-Sim PTX:  5 (potential) branch divergence @  PC=0x3f0 (stencil.1.sm_52.ptx:170) @%p21 bra $L__BB0_19;
GPGPU-Sim PTX:    immediate post dominator      @  PC=0x518 (stencil.1.sm_52.ptx:226) @%p10 bra $L__BB0_21;
GPGPU-Sim PTX:  6 (potential) branch divergence @  PC=0x400 (stencil.1.sm_52.ptx:173) @%p22 bra $L__BB0_11;
GPGPU-Sim PTX:    immediate post dominator      @  PC=0x438 (stencil.1.sm_52.ptx:186) setp.eq.s32 %p23, %r8, 0;
GPGPU-Sim PTX:  7 (potential) branch divergence @  PC=0x408 (stencil.1.sm_52.ptx:174) bra.uni $L__BB0_10;
GPGPU-Sim PTX:    immediate post dominator      @  PC=0x430 (stencil.1.sm_52.ptx:183) ld.shared.f32 %f68, [%r16];
GPGPU-Sim PTX:  8 (potential) branch divergence @  PC=0x428 (stencil.1.sm_52.ptx:180) bra.uni $L__BB0_12;
GPGPU-Sim PTX:    immediate post dominator      @  PC=0x438 (stencil.1.sm_52.ptx:186) setp.eq.s32 %p23, %r8, 0;
GPGPU-Sim PTX:  9 (potential) branch divergence @  PC=0x440 (stencil.1.sm_52.ptx:187) @%p23 bra $L__BB0_14;
GPGPU-Sim PTX:    immediate post dominator      @  PC=0x470 (stencil.1.sm_52.ptx:198) setp.eq.s32 %p24, %r4, 0;
GPGPU-Sim PTX: 10 (potential) branch divergence @  PC=0x450 (stencil.1.sm_52.ptx:190) bra.uni $L__BB0_15;
GPGPU-Sim PTX:    immediate post dominator      @  PC=0x470 (stencil.1.sm_52.ptx:198) setp.eq.s32 %p24, %r4, 0;
GPGPU-Sim PTX: 11 (potential) branch divergence @  PC=0x478 (stencil.1.sm_52.ptx:199) @%p24 bra $L__BB0_17;
GPGPU-Sim PTX:    immediate post dominator      @  PC=0x4b0 (stencil.1.sm_52.ptx:211) add.f32 %f41, %f66, %f67;
GPGPU-Sim PTX: 12 (potential) branch divergence @  PC=0x488 (stencil.1.sm_52.ptx:202) bra.uni $L__BB0_18;
GPGPU-Sim PTX:    immediate post dominator      @  PC=0x4b0 (stencil.1.sm_52.ptx:211) add.f32 %f41, %f66, %f67;
GPGPU-Sim PTX: 13 (potential) branch divergence @  PC=0x518 (stencil.1.sm_52.ptx:226) @%p10 bra $L__BB0_21;
GPGPU-Sim PTX:    immediate post dominator      @  PC=0x538 (stencil.1.sm_52.ptx:233) @%p26 bra $L__BB0_32;
GPGPU-Sim PTX: 14 (potential) branch divergence @  PC=0x538 (stencil.1.sm_52.ptx:233) @%p26 bra $L__BB0_32;
GPGPU-Sim PTX:    immediate post dominator      @  PC=0x668 (stencil.1.sm_52.ptx:291) bar.sync 0;
GPGPU-Sim PTX: 15 (potential) branch divergence @  PC=0x548 (stencil.1.sm_52.ptx:236) @%p27 bra $L__BB0_24;
GPGPU-Sim PTX:    immediate post dominator      @  PC=0x580 (stencil.1.sm_52.ptx:249) setp.eq.s32 %p28, %r8, 0;
GPGPU-Sim PTX: 16 (potential) branch divergence @  PC=0x550 (stencil.1.sm_52.ptx:237) bra.uni $L__BB0_23;
GPGPU-Sim PTX:    immediate post dominator      @  PC=0x578 (stencil.1.sm_52.ptx:246) ld.shared.f32 %f72, [%r18];
GPGPU-Sim PTX: 17 (potential) branch divergence @  PC=0x570 (stencil.1.sm_52.ptx:243) bra.uni $L__BB0_25;
GPGPU-Sim PTX:    immediate post dominator      @  PC=0x580 (stencil.1.sm_52.ptx:249) setp.eq.s32 %p28, %r8, 0;
GPGPU-Sim PTX: 18 (potential) branch divergence @  PC=0x588 (stencil.1.sm_52.ptx:250) @%p28 bra $L__BB0_27;
GPGPU-Sim PTX:    immediate post dominator      @  PC=0x5b8 (stencil.1.sm_52.ptx:261) setp.eq.s32 %p29, %r11, %r29;
GPGPU-Sim PTX: 19 (potential) branch divergence @  PC=0x598 (stencil.1.sm_52.ptx:253) bra.uni $L__BB0_28;
GPGPU-Sim PTX:    immediate post dominator      @  PC=0x5b8 (stencil.1.sm_52.ptx:261) setp.eq.s32 %p29, %r11, %r29;
GPGPU-Sim PTX: 20 (potential) branch divergence @  PC=0x5c0 (stencil.1.sm_52.ptx:262) @%p29 bra $L__BB0_30;
GPGPU-Sim PTX:    immediate post dominator      @  PC=0x600 (stencil.1.sm_52.ptx:276) add.f32 %f51, %f65, %f71;
GPGPU-Sim PTX: 21 (potential) branch divergence @  PC=0x5c8 (stencil.1.sm_52.ptx:263) bra.uni $L__BB0_29;
GPGPU-Sim PTX:    immediate post dominator      @  PC=0x5f8 (stencil.1.sm_52.ptx:273) ld.shared.f32 %f74, [%r14+4];
GPGPU-Sim PTX: 22 (potential) branch divergence @  PC=0x5f0 (stencil.1.sm_52.ptx:270) bra.uni $L__BB0_31;
GPGPU-Sim PTX:    immediate post dominator      @  PC=0x600 (stencil.1.sm_52.ptx:276) add.f32 %f51, %f65, %f71;
GPGPU-Sim PTX: 23 (potential) branch divergence @  PC=0x6e8 (stencil.1.sm_52.ptx:307) @%p30 bra $L__BB0_6;
GPGPU-Sim PTX:    immediate post dominator      @  PC=0x6f0 (stencil.1.sm_52.ptx:310) ret;
GPGPU-Sim PTX: ... end of reconvergence points for _Z24block2D_hybrid_coarsen_xffPfS_iii
GPGPU-Sim PTX: ... done pre-decoding instructions for '_Z24block2D_hybrid_coarsen_xffPfS_iii'.
GPGPU-Sim PTX: pushing kernel '_Z24block2D_hybrid_coarsen_xffPfS_iii' to stream 0, gridDim= (8,128,1) blockDim = (32,4,1) 
GPGPU-Sim uArch: Shader 0 bind to kernel 1 '_Z24block2D_hybrid_coarsen_xffPfS_iii'
GPGPU-Sim uArch: CTA/core = 16, limited by: threads regs
GPGPU-Sim: Reconfigure L1 cache to 128KB
GPGPU-Sim uArch: Shader 1 bind to kernel 1 '_Z24block2D_hybrid_coarsen_xffPfS_iii'
GPGPU-Sim uArch: Shader 2 bind to kernel 1 '_Z24block2D_hybrid_coarsen_xffPfS_iii'
GPGPU-Sim uArch: Shader 3 bind to kernel 1 '_Z24block2D_hybrid_coarsen_xffPfS_iii'
GPGPU-Sim uArch: Shader 4 bind to kernel 1 '_Z24block2D_hybrid_coarsen_xffPfS_iii'
GPGPU-Sim uArch: Shader 5 bind to kernel 1 '_Z24block2D_hybrid_coarsen_xffPfS_iii'
GPGPU-Sim uArch: Shader 6 bind to kernel 1 '_Z24block2D_hybrid_coarsen_xffPfS_iii'
GPGPU-Sim uArch: Shader 7 bind to kernel 1 '_Z24block2D_hybrid_coarsen_xffPfS_iii'
GPGPU-Sim uArch: Shader 8 bind to kernel 1 '_Z24block2D_hybrid_coarsen_xffPfS_iii'
GPGPU-Sim uArch: Shader 9 bind to kernel 1 '_Z24block2D_hybrid_coarsen_xffPfS_iii'
GPGPU-Sim uArch: Shader 10 bind to kernel 1 '_Z24block2D_hybrid_coarsen_xffPfS_iii'
GPGPU-Sim uArch: Shader 11 bind to kernel 1 '_Z24block2D_hybrid_coarsen_xffPfS_iii'
GPGPU-Sim uArch: Shader 12 bind to kernel 1 '_Z24block2D_hybrid_coarsen_xffPfS_iii'
GPGPU-Sim uArch: Shader 13 bind to kernel 1 '_Z24block2D_hybrid_coarsen_xffPfS_iii'
GPGPU-Sim uArch: Shader 14 bind to kernel 1 '_Z24block2D_hybrid_coarsen_xffPfS_iii'
GPGPU-Sim uArch: Shader 15 bind to kernel 1 '_Z24block2D_hybrid_coarsen_xffPfS_iii'
GPGPU-Sim uArch: Shader 16 bind to kernel 1 '_Z24block2D_hybrid_coarsen_xffPfS_iii'
GPGPU-Sim uArch: Shader 17 bind to kernel 1 '_Z24block2D_hybrid_coarsen_xffPfS_iii'
GPGPU-Sim uArch: Shader 18 bind to kernel 1 '_Z24block2D_hybrid_coarsen_xffPfS_iii'
GPGPU-Sim uArch: Shader 19 bind to kernel 1 '_Z24block2D_hybrid_coarsen_xffPfS_iii'
GPGPU-Sim uArch: Shader 20 bind to kernel 1 '_Z24block2D_hybrid_coarsen_xffPfS_iii'
GPGPU-Sim uArch: Shader 21 bind to kernel 1 '_Z24block2D_hybrid_coarsen_xffPfS_iii'
GPGPU-Sim uArch: Shader 22 bind to kernel 1 '_Z24block2D_hybrid_coarsen_xffPfS_iii'
GPGPU-Sim uArch: Shader 23 bind to kernel 1 '_Z24block2D_hybrid_coarsen_xffPfS_iii'
GPGPU-Sim uArch: Shader 24 bind to kernel 1 '_Z24block2D_hybrid_coarsen_xffPfS_iii'
GPGPU-Sim uArch: Shader 25 bind to kernel 1 '_Z24block2D_hybrid_coarsen_xffPfS_iii'
GPGPU-Sim uArch: Shader 26 bind to kernel 1 '_Z24block2D_hybrid_coarsen_xffPfS_iii'
GPGPU-Sim uArch: Shader 27 bind to kernel 1 '_Z24block2D_hybrid_coarsen_xffPfS_iii'
GPGPU-Sim uArch: Shader 28 bind to kernel 1 '_Z24block2D_hybrid_coarsen_xffPfS_iii'
GPGPU-Sim uArch: Shader 29 bind to kernel 1 '_Z24block2D_hybrid_coarsen_xffPfS_iii'
GPGPU-Sim uArch: Shader 30 bind to kernel 1 '_Z24block2D_hybrid_coarsen_xffPfS_iii'
GPGPU-Sim uArch: Shader 31 bind to kernel 1 '_Z24block2D_hybrid_coarsen_xffPfS_iii'
GPGPU-Sim uArch: Shader 32 bind to kernel 1 '_Z24block2D_hybrid_coarsen_xffPfS_iii'
GPGPU-Sim uArch: Shader 33 bind to kernel 1 '_Z24block2D_hybrid_coarsen_xffPfS_iii'
GPGPU-Sim uArch: Shader 34 bind to kernel 1 '_Z24block2D_hybrid_coarsen_xffPfS_iii'
GPGPU-Sim uArch: Shader 35 bind to kernel 1 '_Z24block2D_hybrid_coarsen_xffPfS_iii'
GPGPU-Sim uArch: Shader 36 bind to kernel 1 '_Z24block2D_hybrid_coarsen_xffPfS_iii'
GPGPU-Sim uArch: Shader 37 bind to kernel 1 '_Z24block2D_hybrid_coarsen_xffPfS_iii'
GPGPU-Sim uArch: Shader 38 bind to kernel 1 '_Z24block2D_hybrid_coarsen_xffPfS_iii'
GPGPU-Sim uArch: Shader 39 bind to kernel 1 '_Z24block2D_hybrid_coarsen_xffPfS_iii'
GPGPU-Sim uArch: Shader 40 bind to kernel 1 '_Z24block2D_hybrid_coarsen_xffPfS_iii'
GPGPU-Sim uArch: Shader 41 bind to kernel 1 '_Z24block2D_hybrid_coarsen_xffPfS_iii'
GPGPU-Sim uArch: Shader 42 bind to kernel 1 '_Z24block2D_hybrid_coarsen_xffPfS_iii'
GPGPU-Sim uArch: Shader 43 bind to kernel 1 '_Z24block2D_hybrid_coarsen_xffPfS_iii'
GPGPU-Sim uArch: Shader 44 bind to kernel 1 '_Z24block2D_hybrid_coarsen_xffPfS_iii'
GPGPU-Sim uArch: Shader 45 bind to kernel 1 '_Z24block2D_hybrid_coarsen_xffPfS_iii'
GPGPU-Sim uArch: Shader 46 bind to kernel 1 '_Z24block2D_hybrid_coarsen_xffPfS_iii'
GPGPU-Sim uArch: Shader 47 bind to kernel 1 '_Z24block2D_hybrid_coarsen_xffPfS_iii'
GPGPU-Sim uArch: Shader 48 bind to kernel 1 '_Z24block2D_hybrid_coarsen_xffPfS_iii'
GPGPU-Sim uArch: Shader 49 bind to kernel 1 '_Z24block2D_hybrid_coarsen_xffPfS_iii'
GPGPU-Sim uArch: Shader 50 bind to kernel 1 '_Z24block2D_hybrid_coarsen_xffPfS_iii'
GPGPU-Sim uArch: Shader 51 bind to kernel 1 '_Z24block2D_hybrid_coarsen_xffPfS_iii'
GPGPU-Sim uArch: Shader 52 bind to kernel 1 '_Z24block2D_hybrid_coarsen_xffPfS_iii'
GPGPU-Sim uArch: Shader 53 bind to kernel 1 '_Z24block2D_hybrid_coarsen_xffPfS_iii'
GPGPU-Sim uArch: Shader 54 bind to kernel 1 '_Z24block2D_hybrid_coarsen_xffPfS_iii'
GPGPU-Sim uArch: Shader 55 bind to kernel 1 '_Z24block2D_hybrid_coarsen_xffPfS_iii'
GPGPU-Sim uArch: Shader 56 bind to kernel 1 '_Z24block2D_hybrid_coarsen_xffPfS_iii'
GPGPU-Sim uArch: Shader 57 bind to kernel 1 '_Z24block2D_hybrid_coarsen_xffPfS_iii'
GPGPU-Sim uArch: Shader 58 bind to kernel 1 '_Z24block2D_hybrid_coarsen_xffPfS_iii'
GPGPU-Sim uArch: Shader 59 bind to kernel 1 '_Z24block2D_hybrid_coarsen_xffPfS_iii'
GPGPU-Sim uArch: Shader 60 bind to kernel 1 '_Z24block2D_hybrid_coarsen_xffPfS_iii'
GPGPU-Sim uArch: Shader 61 bind to kernel 1 '_Z24block2D_hybrid_coarsen_xffPfS_iii'
GPGPU-Sim uArch: Shader 62 bind to kernel 1 '_Z24block2D_hybrid_coarsen_xffPfS_iii'
GPGPU-Sim uArch: Shader 63 bind to kernel 1 '_Z24block2D_hybrid_coarsen_xffPfS_iii'
GPGPU-Sim uArch: Shader 64 bind to kernel 1 '_Z24block2D_hybrid_coarsen_xffPfS_iii'
GPGPU-Sim uArch: Shader 65 bind to kernel 1 '_Z24block2D_hybrid_coarsen_xffPfS_iii'
GPGPU-Sim uArch: Shader 66 bind to kernel 1 '_Z24block2D_hybrid_coarsen_xffPfS_iii'
GPGPU-Sim uArch: Shader 67 bind to kernel 1 '_Z24block2D_hybrid_coarsen_xffPfS_iii'
GPGPU-Sim uArch: Shader 68 bind to kernel 1 '_Z24block2D_hybrid_coarsen_xffPfS_iii'
GPGPU-Sim uArch: Shader 69 bind to kernel 1 '_Z24block2D_hybrid_coarsen_xffPfS_iii'
GPGPU-Sim uArch: Shader 70 bind to kernel 1 '_Z24block2D_hybrid_coarsen_xffPfS_iii'
GPGPU-Sim uArch: Shader 71 bind to kernel 1 '_Z24block2D_hybrid_coarsen_xffPfS_iii'
GPGPU-Sim uArch: Shader 72 bind to kernel 1 '_Z24block2D_hybrid_coarsen_xffPfS_iii'
GPGPU-Sim uArch: Shader 73 bind to kernel 1 '_Z24block2D_hybrid_coarsen_xffPfS_iii'
GPGPU-Sim uArch: Shader 74 bind to kernel 1 '_Z24block2D_hybrid_coarsen_xffPfS_iii'
GPGPU-Sim uArch: Shader 75 bind to kernel 1 '_Z24block2D_hybrid_coarsen_xffPfS_iii'
GPGPU-Sim uArch: Shader 76 bind to kernel 1 '_Z24block2D_hybrid_coarsen_xffPfS_iii'
GPGPU-Sim uArch: Shader 77 bind to kernel 1 '_Z24block2D_hybrid_coarsen_xffPfS_iii'
GPGPU-Sim uArch: Shader 78 bind to kernel 1 '_Z24block2D_hybrid_coarsen_xffPfS_iii'
GPGPU-Sim uArch: Shader 79 bind to kernel 1 '_Z24block2D_hybrid_coarsen_xffPfS_iii'
Destroy streams for kernel 1: size 0
kernel_name = _Z24block2D_hybrid_coarsen_xffPfS_iii 
kernel_launch_uid = 1 
gpu_sim_cycle = 216123
gpu_sim_insn = 579037448
gpu_ipc =    2679.2031
gpu_tot_sim_cycle = 216123
gpu_tot_sim_insn = 579037448
gpu_tot_ipc =    2679.2031
gpu_tot_issued_cta = 1024
gpu_occupancy = 77.8638% 
gpu_tot_occupancy = 77.8638% 
max_total_param_size = 0
gpu_stall_dramfull = 2993449
gpu_stall_icnt2sh    = 0
partiton_level_parallism =      25.7788
partiton_level_parallism_total  =      25.7788
partiton_level_parallism_util =      27.0596
partiton_level_parallism_util_total  =      27.0596
L2_BW  =     989.9046 GB/Sec
L2_BW_total  =     989.9046 GB/Sec
gpu_total_sim_rate=541662

========= Core cache stats =========
L1I_cache:
	L1I_total_cache_accesses = 0
	L1I_total_cache_misses = 0
	L1I_total_cache_pending_hits = 0
	L1I_total_cache_reservation_fails = 0
L1D_cache:
	L1D_cache_core[0]: Access = 67482, Miss = 67482, Miss_rate = 1.000, Pending_hits = 0, Reservation_fails = 0
	L1D_cache_core[1]: Access = 70644, Miss = 70644, Miss_rate = 1.000, Pending_hits = 0, Reservation_fails = 0
	L1D_cache_core[2]: Access = 70644, Miss = 70644, Miss_rate = 1.000, Pending_hits = 0, Reservation_fails = 0
	L1D_cache_core[3]: Access = 70644, Miss = 70644, Miss_rate = 1.000, Pending_hits = 0, Reservation_fails = 0
	L1D_cache_core[4]: Access = 70644, Miss = 70644, Miss_rate = 1.000, Pending_hits = 0, Reservation_fails = 0
	L1D_cache_core[5]: Access = 70644, Miss = 70644, Miss_rate = 1.000, Pending_hits = 0, Reservation_fails = 0
	L1D_cache_core[6]: Access = 70644, Miss = 70644, Miss_rate = 1.000, Pending_hits = 0, Reservation_fails = 0
	L1D_cache_core[7]: Access = 67482, Miss = 67482, Miss_rate = 1.000, Pending_hits = 0, Reservation_fails = 0
	L1D_cache_core[8]: Access = 68536, Miss = 68536, Miss_rate = 1.000, Pending_hits = 0, Reservation_fails = 0
	L1D_cache_core[9]: Access = 71760, Miss = 71760, Miss_rate = 1.000, Pending_hits = 0, Reservation_fails = 0
	L1D_cache_core[10]: Access = 71760, Miss = 71760, Miss_rate = 1.000, Pending_hits = 0, Reservation_fails = 0
	L1D_cache_core[11]: Access = 71760, Miss = 71760, Miss_rate = 1.000, Pending_hits = 0, Reservation_fails = 0
	L1D_cache_core[12]: Access = 71760, Miss = 71760, Miss_rate = 1.000, Pending_hits = 0, Reservation_fails = 0
	L1D_cache_core[13]: Access = 71760, Miss = 71760, Miss_rate = 1.000, Pending_hits = 0, Reservation_fails = 0
	L1D_cache_core[14]: Access = 71760, Miss = 71760, Miss_rate = 1.000, Pending_hits = 0, Reservation_fails = 0
	L1D_cache_core[15]: Access = 68536, Miss = 68536, Miss_rate = 1.000, Pending_hits = 0, Reservation_fails = 0
	L1D_cache_core[16]: Access = 68536, Miss = 68536, Miss_rate = 1.000, Pending_hits = 0, Reservation_fails = 0
	L1D_cache_core[17]: Access = 71760, Miss = 71760, Miss_rate = 1.000, Pending_hits = 0, Reservation_fails = 0
	L1D_cache_core[18]: Access = 71760, Miss = 71760, Miss_rate = 1.000, Pending_hits = 0, Reservation_fails = 0
	L1D_cache_core[19]: Access = 71760, Miss = 71760, Miss_rate = 1.000, Pending_hits = 0, Reservation_fails = 0
	L1D_cache_core[20]: Access = 71760, Miss = 71760, Miss_rate = 1.000, Pending_hits = 0, Reservation_fails = 0
	L1D_cache_core[21]: Access = 71760, Miss = 71760, Miss_rate = 1.000, Pending_hits = 0, Reservation_fails = 0
	L1D_cache_core[22]: Access = 71760, Miss = 71760, Miss_rate = 1.000, Pending_hits = 0, Reservation_fails = 0
	L1D_cache_core[23]: Access = 68536, Miss = 68536, Miss_rate = 1.000, Pending_hits = 0, Reservation_fails = 0
	L1D_cache_core[24]: Access = 68536, Miss = 68536, Miss_rate = 1.000, Pending_hits = 0, Reservation_fails = 0
	L1D_cache_core[25]: Access = 71760, Miss = 71760, Miss_rate = 1.000, Pending_hits = 0, Reservation_fails = 0
	L1D_cache_core[26]: Access = 71760, Miss = 71760, Miss_rate = 1.000, Pending_hits = 0, Reservation_fails = 0
	L1D_cache_core[27]: Access = 71760, Miss = 71760, Miss_rate = 1.000, Pending_hits = 0, Reservation_fails = 0
	L1D_cache_core[28]: Access = 71760, Miss = 71760, Miss_rate = 1.000, Pending_hits = 0, Reservation_fails = 0
	L1D_cache_core[29]: Access = 71760, Miss = 71760, Miss_rate = 1.000, Pending_hits = 0, Reservation_fails = 0
	L1D_cache_core[30]: Access = 71760, Miss = 71760, Miss_rate = 1.000, Pending_hits = 0, Reservation_fails = 0
	L1D_cache_core[31]: Access = 68536, Miss = 68536, Miss_rate = 1.000, Pending_hits = 0, Reservation_fails = 0
	L1D_cache_core[32]: Access = 68536, Miss = 68536, Miss_rate = 1.000, Pending_hits = 0, Reservation_fails = 0
	L1D_cache_core[33]: Access = 71760, Miss = 71760, Miss_rate = 1.000, Pending_hits = 0, Reservation_fails = 0
	L1D_cache_core[34]: Access = 71760, Miss = 71760, Miss_rate = 1.000, Pending_hits = 0, Reservation_fails = 0
	L1D_cache_core[35]: Access = 71760, Miss = 71760, Miss_rate = 1.000, Pending_hits = 0, Reservation_fails = 0
	L1D_cache_core[36]: Access = 71760, Miss = 71760, Miss_rate = 1.000, Pending_hits = 0, Reservation_fails = 0
	L1D_cache_core[37]: Access = 71760, Miss = 71760, Miss_rate = 1.000, Pending_hits = 0, Reservation_fails = 0
	L1D_cache_core[38]: Access = 71760, Miss = 71760, Miss_rate = 1.000, Pending_hits = 0, Reservation_fails = 0
	L1D_cache_core[39]: Access = 68536, Miss = 68536, Miss_rate = 1.000, Pending_hits = 0, Reservation_fails = 0
	L1D_cache_core[40]: Access = 68536, Miss = 68536, Miss_rate = 1.000, Pending_hits = 0, Reservation_fails = 0
	L1D_cache_core[41]: Access = 71760, Miss = 71760, Miss_rate = 1.000, Pending_hits = 0, Reservation_fails = 0
	L1D_cache_core[42]: Access = 71760, Miss = 71760, Miss_rate = 1.000, Pending_hits = 0, Reservation_fails = 0
	L1D_cache_core[43]: Access = 71760, Miss = 71760, Miss_rate = 1.000, Pending_hits = 0, Reservation_fails = 0
	L1D_cache_core[44]: Access = 71760, Miss = 71760, Miss_rate = 1.000, Pending_hits = 0, Reservation_fails = 0
	L1D_cache_core[45]: Access = 71760, Miss = 71760, Miss_rate = 1.000, Pending_hits = 0, Reservation_fails = 0
	L1D_cache_core[46]: Access = 71760, Miss = 71760, Miss_rate = 1.000, Pending_hits = 0, Reservation_fails = 0
	L1D_cache_core[47]: Access = 68536, Miss = 68536, Miss_rate = 1.000, Pending_hits = 0, Reservation_fails = 0
	L1D_cache_core[48]: Access = 68536, Miss = 68536, Miss_rate = 1.000, Pending_hits = 0, Reservation_fails = 0
	L1D_cache_core[49]: Access = 71760, Miss = 71760, Miss_rate = 1.000, Pending_hits = 0, Reservation_fails = 0
	L1D_cache_core[50]: Access = 71760, Miss = 71760, Miss_rate = 1.000, Pending_hits = 0, Reservation_fails = 0
	L1D_cache_core[51]: Access = 71760, Miss = 71760, Miss_rate = 1.000, Pending_hits = 0, Reservation_fails = 0
	L1D_cache_core[52]: Access = 71760, Miss = 71760, Miss_rate = 1.000, Pending_hits = 0, Reservation_fails = 0
	L1D_cache_core[53]: Access = 71760, Miss = 71760, Miss_rate = 1.000, Pending_hits = 0, Reservation_fails = 0
	L1D_cache_core[54]: Access = 71760, Miss = 71760, Miss_rate = 1.000, Pending_hits = 0, Reservation_fails = 0
	L1D_cache_core[55]: Access = 68536, Miss = 68536, Miss_rate = 1.000, Pending_hits = 0, Reservation_fails = 0
	L1D_cache_core[56]: Access = 67482, Miss = 67482, Miss_rate = 1.000, Pending_hits = 0, Reservation_fails = 0
	L1D_cache_core[57]: Access = 70644, Miss = 70644, Miss_rate = 1.000, Pending_hits = 0, Reservation_fails = 0
	L1D_cache_core[58]: Access = 70644, Miss = 70644, Miss_rate = 1.000, Pending_hits = 0, Reservation_fails = 0
	L1D_cache_core[59]: Access = 70644, Miss = 70644, Miss_rate = 1.000, Pending_hits = 0, Reservation_fails = 0
	L1D_cache_core[60]: Access = 70644, Miss = 70644, Miss_rate = 1.000, Pending_hits = 0, Reservation_fails = 0
	L1D_cache_core[61]: Access = 70644, Miss = 70644, Miss_rate = 1.000, Pending_hits = 0, Reservation_fails = 0
	L1D_cache_core[62]: Access = 70644, Miss = 70644, Miss_rate = 1.000, Pending_hits = 0, Reservation_fails = 0
	L1D_cache_core[63]: Access = 67482, Miss = 67482, Miss_rate = 1.000, Pending_hits = 0, Reservation_fails = 0
	L1D_cache_core[64]: Access = 63264, Miss = 63264, Miss_rate = 1.000, Pending_hits = 0, Reservation_fails = 0
	L1D_cache_core[65]: Access = 66240, Miss = 66240, Miss_rate = 1.000, Pending_hits = 0, Reservation_fails = 0
	L1D_cache_core[66]: Access = 66240, Miss = 66240, Miss_rate = 1.000, Pending_hits = 0, Reservation_fails = 0
	L1D_cache_core[67]: Access = 66240, Miss = 66240, Miss_rate = 1.000, Pending_hits = 0, Reservation_fails = 0
	L1D_cache_core[68]: Access = 66240, Miss = 66240, Miss_rate = 1.000, Pending_hits = 0, Reservation_fails = 0
	L1D_cache_core[69]: Access = 66240, Miss = 66240, Miss_rate = 1.000, Pending_hits = 0, Reservation_fails = 0
	L1D_cache_core[70]: Access = 66240, Miss = 66240, Miss_rate = 1.000, Pending_hits = 0, Reservation_fails = 0
	L1D_cache_core[71]: Access = 63264, Miss = 63264, Miss_rate = 1.000, Pending_hits = 0, Reservation_fails = 0
	L1D_cache_core[72]: Access = 63264, Miss = 63264, Miss_rate = 1.000, Pending_hits = 0, Reservation_fails = 0
	L1D_cache_core[73]: Access = 66240, Miss = 66240, Miss_rate = 1.000, Pending_hits = 0, Reservation_fails = 0
	L1D_cache_core[74]: Access = 66240, Miss = 66240, Miss_rate = 1.000, Pending_hits = 0, Reservation_fails = 0
	L1D_cache_core[75]: Access = 66240, Miss = 66240, Miss_rate = 1.000, Pending_hits = 0, Reservation_fails = 0
	L1D_cache_core[76]: Access = 66240, Miss = 66240, Miss_rate = 1.000, Pending_hits = 0, Reservation_fails = 0
	L1D_cache_core[77]: Access = 66240, Miss = 66240, Miss_rate = 1.000, Pending_hits = 0, Reservation_fails = 0
	L1D_cache_core[78]: Access = 66240, Miss = 66240, Miss_rate = 1.000, Pending_hits = 0, Reservation_fails = 0
	L1D_cache_core[79]: Access = 63264, Miss = 63264, Miss_rate = 1.000, Pending_hits = 0, Reservation_fails = 0
	L1D_total_cache_accesses = 5571384
	L1D_total_cache_misses = 5571384
	L1D_total_cache_miss_rate = 1.0000
	L1D_total_cache_pending_hits = 0
	L1D_total_cache_reservation_fails = 0
	L1D_cache_data_port_util = 0.000
	L1D_cache_fill_port_util = 0.219
L1C_cache:
	L1C_total_cache_accesses = 0
	L1C_total_cache_misses = 0
	L1C_total_cache_pending_hits = 0
	L1C_total_cache_reservation_fails = 0
L1T_cache:
	L1T_total_cache_accesses = 0
	L1T_total_cache_misses = 0
	L1T_total_cache_pending_hits = 0
	L1T_total_cache_reservation_fails = 0

Total_core_cache_stats:
	Total_core_cache_stats_breakdown[GLOBAL_ACC_R][HIT] = 0
	Total_core_cache_stats_breakdown[GLOBAL_ACC_R][HIT_RESERVED] = 0
	Total_core_cache_stats_breakdown[GLOBAL_ACC_R][MISS] = 3547704
	Total_core_cache_stats_breakdown[GLOBAL_ACC_R][RESERVATION_FAIL] = 0
	Total_core_cache_stats_breakdown[GLOBAL_ACC_R][SECTOR_MISS] = 0
	Total_core_cache_stats_breakdown[LOCAL_ACC_R][HIT] = 0
	Total_core_cache_stats_breakdown[LOCAL_ACC_R][HIT_RESERVED] = 0
	Total_core_cache_stats_breakdown[LOCAL_ACC_R][MISS] = 0
	Total_core_cache_stats_breakdown[LOCAL_ACC_R][RESERVATION_FAIL] = 0
	Total_core_cache_stats_breakdown[LOCAL_ACC_R][SECTOR_MISS] = 0
	Total_core_cache_stats_breakdown[CONST_ACC_R][HIT] = 0
	Total_core_cache_stats_breakdown[CONST_ACC_R][HIT_RESERVED] = 0
	Total_core_cache_stats_breakdown[CONST_ACC_R][MISS] = 0
	Total_core_cache_stats_breakdown[CONST_ACC_R][RESERVATION_FAIL] = 0
	Total_core_cache_stats_breakdown[CONST_ACC_R][SECTOR_MISS] = 0
	Total_core_cache_stats_breakdown[TEXTURE_ACC_R][HIT] = 0
	Total_core_cache_stats_breakdown[TEXTURE_ACC_R][HIT_RESERVED] = 0
	Total_core_cache_stats_breakdown[TEXTURE_ACC_R][MISS] = 0
	Total_core_cache_stats_breakdown[TEXTURE_ACC_R][RESERVATION_FAIL] = 0
	Total_core_cache_stats_breakdown[TEXTURE_ACC_R][SECTOR_MISS] = 0
	Total_core_cache_stats_breakdown[GLOBAL_ACC_W][HIT] = 0
	Total_core_cache_stats_breakdown[GLOBAL_ACC_W][HIT_RESERVED] = 0
	Total_core_cache_stats_breakdown[GLOBAL_ACC_W][MISS] = 2023680
	Total_core_cache_stats_breakdown[GLOBAL_ACC_W][RESERVATION_FAIL] = 0
	Total_core_cache_stats_breakdown[GLOBAL_ACC_W][SECTOR_MISS] = 0
	Total_core_cache_stats_breakdown[LOCAL_ACC_W][HIT] = 0
	Total_core_cache_stats_breakdown[LOCAL_ACC_W][HIT_RESERVED] = 0
	Total_core_cache_stats_breakdown[LOCAL_ACC_W][MISS] = 0
	Total_core_cache_stats_breakdown[LOCAL_ACC_W][RESERVATION_FAIL] = 0
	Total_core_cache_stats_breakdown[LOCAL_ACC_W][SECTOR_MISS] = 0
	Total_core_cache_stats_breakdown[L1_WRBK_ACC][HIT] = 0
	Total_core_cache_stats_breakdown[L1_WRBK_ACC][HIT_RESERVED] = 0
	Total_core_cache_stats_breakdown[L1_WRBK_ACC][MISS] = 0
	Total_core_cache_stats_breakdown[L1_WRBK_ACC][RESERVATION_FAIL] = 0
	Total_core_cache_stats_breakdown[L1_WRBK_ACC][SECTOR_MISS] = 0
	Total_core_cache_stats_breakdown[L2_WRBK_ACC][HIT] = 0
	Total_core_cache_stats_breakdown[L2_WRBK_ACC][HIT_RESERVED] = 0
	Total_core_cache_stats_breakdown[L2_WRBK_ACC][MISS] = 0
	Total_core_cache_stats_breakdown[L2_WRBK_ACC][RESERVATION_FAIL] = 0
	Total_core_cache_stats_breakdown[L2_WRBK_ACC][SECTOR_MISS] = 0
	Total_core_cache_stats_breakdown[INST_ACC_R][HIT] = 0
	Total_core_cache_stats_breakdown[INST_ACC_R][HIT_RESERVED] = 0
	Total_core_cache_stats_breakdown[INST_ACC_R][MISS] = 0
	Total_core_cache_stats_breakdown[INST_ACC_R][RESERVATION_FAIL] = 0
	Total_core_cache_stats_breakdown[INST_ACC_R][SECTOR_MISS] = 0
	Total_core_cache_stats_breakdown[L1_WR_ALLOC_R][HIT] = 0
	Total_core_cache_stats_breakdown[L1_WR_ALLOC_R][HIT_RESERVED] = 0
	Total_core_cache_stats_breakdown[L1_WR_ALLOC_R][MISS] = 0
	Total_core_cache_stats_breakdown[L1_WR_ALLOC_R][RESERVATION_FAIL] = 0
	Total_core_cache_stats_breakdown[L1_WR_ALLOC_R][SECTOR_MISS] = 0
	Total_core_cache_stats_breakdown[L2_WR_ALLOC_R][HIT] = 0
	Total_core_cache_stats_breakdown[L2_WR_ALLOC_R][HIT_RESERVED] = 0
	Total_core_cache_stats_breakdown[L2_WR_ALLOC_R][MISS] = 0
	Total_core_cache_stats_breakdown[L2_WR_ALLOC_R][RESERVATION_FAIL] = 0
	Total_core_cache_stats_breakdown[L2_WR_ALLOC_R][SECTOR_MISS] = 0
	Total_core_cache_stats_breakdown[GLOBAL_ACC_R][TOTAL_ACCESS] = 3547704
	Total_core_cache_stats_breakdown[GLOBAL_ACC_W][TOTAL_ACCESS] = 2023680

Total_core_cache_fail_stats:
ctas_completed 1024, Shader 0 warp_id issue ditsribution:
warp_id:
0, 1, 2, 3, 4, 5, 6, 7, 8, 9, 10, 11, 12, 13, 14, 15, 16, 17, 18, 19, 20, 21, 22, 23, 24, 25, 26, 27, 28, 29, 30, 31, 32, 33, 34, 35, 36, 37, 38, 39, 40, 41, 42, 43, 44, 45, 46, 47, 48, 49, 50, 51, 
distro:
1797, 5207, 5207, 5455, 5331, 5207, 5207, 5455, 5331, 5207, 5207, 5455, 5331, 5207, 5207, 5455, 5331, 5207, 5207, 5455, 5331, 5207, 5207, 5455, 5331, 5207, 5207, 5455, 5331, 5207, 5207, 5455, 5331, 5207, 5207, 5455, 5331, 5207, 5207, 5455, 5331, 5207, 5207, 5455, 5331, 5207, 5207, 5455, 5331, 5207, 5207, 5455, 
gpgpu_n_tot_thrd_icount = 716112768
gpgpu_n_tot_w_icount = 22378524
gpgpu_n_stall_shd_mem = 3846528
gpgpu_n_mem_read_local = 0
gpgpu_n_mem_write_local = 0
gpgpu_n_mem_read_global = 3547704
gpgpu_n_mem_write_global = 2023680
gpgpu_n_mem_texture = 0
gpgpu_n_mem_const = 0
gpgpu_n_load_insn  = 25251376
gpgpu_n_store_insn = 16126200
gpgpu_n_shmem_insn = 105186984
gpgpu_n_sstarr_insn = 0
gpgpu_n_tex_insn = 0
gpgpu_n_const_mem_insn = 0
gpgpu_n_param_mem_insn = 917504
gpgpu_n_shmem_bkconflict = 0
gpgpu_n_cache_bkconflict = 0
gpgpu_n_intrawarp_mshr_merge = 0
gpgpu_n_cmem_portconflict = 0
gpgpu_stall_shd_mem[c_mem][resource_stall] = 0
gpgpu_stall_shd_mem[s_mem][bk_conf] = 0
gpgpu_stall_shd_mem[gl_mem][resource_stall] = 3846528
gpgpu_stall_shd_mem[gl_mem][coal_stall] = 0
gpgpu_stall_shd_mem[gl_mem][data_port_stall] = 0
gpu_reg_bank_conflict_stalls = 0
Warp Occupancy Distribution:
Stall:3899708	W0_Idle:135222	W0_Scoreboard:38518062	W1:1992060	W2:0	W3:0	W4:0	W5:0	W6:0	W7:0	W8:0	W9:0	W10:0	W11:0	W12:0	W13:0	W14:0	W15:0	W16:0	W17:0	W18:0	W19:0	W20:0	W21:0	W22:0	W23:0	W24:0	W25:0	W26:0	W27:0	W28:0	W29:0	W30:0	W31:2513604	W32:17872860
single_issue_nums: WS0:5611774	WS1:5514496	WS2:5514496	WS3:5737758	
dual_issue_nums: WS0:0	WS1:0	WS2:0	WS3:0	
traffic_breakdown_coretomem[GLOBAL_ACC_R] = 28381632 {8:3547704,}
traffic_breakdown_coretomem[GLOBAL_ACC_W] = 80947200 {40:2023680,}
traffic_breakdown_memtocore[GLOBAL_ACC_R] = 141908160 {40:3547704,}
traffic_breakdown_memtocore[GLOBAL_ACC_W] = 16189440 {8:2023680,}
maxmflatency = 4467 
max_icnt2mem_latency = 3361 
maxmrqlatency = 1222 
max_icnt2sh_latency = 99 
averagemflatency = 699 
avg_icnt2mem_latency = 244 
avg_mrq_latency = 141 
avg_icnt2sh_latency = 4 
mrq_lat_table:147223 	105785 	77305 	100114 	165423 	403962 	464008 	646296 	463287 	43360 	66 	0 	0 	0 	0 	0 	0 	0 	0 	0 	0 	0 	0 	0 	0 	0 	0 	0 	0 	0 	0 	0 	
dq_lat_table:0 	0 	0 	0 	0 	0 	0 	0 	0 	0 	0 	0 	0 	0 	0 	0 	0 	0 	0 	0 	0 	0 	0 	0 	0 	0 	0 	0 	0 	0 	0 	0 	
mf_lat_table:0 	0 	0 	0 	0 	0 	0 	1063339 	1249662 	2040699 	1145865 	71815 	4 	0 	0 	0 	0 	0 	0 	0 	0 	0 	0 	0 	0 	0 	0 	0 	0 	0 	0 	0 	
icnt2mem_lat_table:0 	0 	0 	0 	1303189 	807140 	580887 	876811 	1195092 	672852 	132430 	2983 	0 	0 	0 	0 	0 	0 	0 	0 	0 	0 	0 	0 	
icnt2sh_lat_table:0 	3428350 	1220820 	644530 	239647 	36948 	1089 	0 	0 	0 	0 	0 	0 	0 	0 	0 	0 	0 	0 	0 	0 	0 	0 	0 	
mf_lat_pw_table:0 	0 	0 	0 	0 	0 	0 	20 	15 	385 	1 	0 	0 	0 	0 	0 	0 	0 	0 	0 	0 	0 	0 	0 	0 	0 	0 	0 	0 	0 	0 	0 	
maximum concurrent accesses to same row:
dram[0]:        64        64        64        64        64        64        64        64        64        64        64        64        61        52        64        56 
dram[1]:        64        64        64        64        64        64        64        64        64        64        64        64        56        60        64        64 
dram[2]:        64        64        64        64        64        64        64        64        64        64        64        60        60        60        64        64 
dram[3]:        64        64        64        64        64        64        64        64        64        64        64        64        60        48        64        64 
dram[4]:        64        64        64        64        64        64        64        64        64        64        64        60        60        60        64        60 
dram[5]:        64        64        64        64        64        64        64        64        64        64        64        60        60        60        64        64 
dram[6]:        64        64        64        64        64        64        64        64        64        64        64        64        56        52        60        64 
dram[7]:        64        64        64        64        64        64        64        64        64        64        64        64        56        50        64        60 
dram[8]:        64        64        64        64        64        64        64        64        64        64        60        64        64        52        64        56 
dram[9]:        64        64        64        64        64        64        64        64        64        64        64        64        56        64        64        64 
dram[10]:        64        64        64        64        64        64        64        64        64        64        64        64        52        60        64        64 
dram[11]:        64        64        64        64        64        64        64        64        64        64        64        64        60        56        64        64 
dram[12]:        64        64        64        64        64        64        64        64        64        64        64        60        56        60        64        59 
dram[13]:        64        64        64        64        64        64        64        64        64        64        64        60        60        60        56        64 
dram[14]:        64        64        64        64        64        64        64        64        64        64        64        64        64        60        56        64 
dram[15]:        64        64        64        64        64        64        64        64        64        64        64        64        48        48        64        56 
dram[16]:        64        64        64        64        64        64        64        64        64        64        64        64        60        56        62        56 
dram[17]:        64        64        64        64        64        64        64        64        64        64        64        64        60        64        64        64 
dram[18]:        64        64        64        64        64        64        64        64        64        64        64        64        60        60        64        64 
dram[19]:        64        64        64        64        64        64        64        64        64        64        64        64        56        64        60        64 
dram[20]:        64        64        64        64        64        64        64        64        64        64        64        64        56        60        64        56 
dram[21]:        64        64        64        64        64        64        64        64        64        64        64        56        60        60        60        64 
dram[22]:        64        64        64        64        64        64        64        64        64        64        64        64        60        56        56        64 
dram[23]:        64        64        64        64        64        64        64        64        64        64        64        64        56        52        64        60 
dram[24]:        64        64        64        64        64        64        64        64        64        64        64        64        56        52        64        60 
dram[25]:        64        64        64        64        64        64        64        64        64        64        64        64        52        60        64        64 
dram[26]:        64        64        64        64        64        64        64        64        64        64        64        60        56        52        64        64 
dram[27]:        64        64        64        64        64        64        64        64        64        64        64        64        52        48        64        64 
dram[28]:        64        64        64        64        64        64        64        64        64        64        64        64        60        60        64        64 
dram[29]:        64        64        64        64        64        64        64        64        64        64        64        60        60        56        60        64 
dram[30]:        64        64        64        64        64        64        64        64        64        64        64        64        44        48        60        64 
dram[31]:        64        64        64        64        64        64        64        64        64        64        64        64        44        44        64        60 
maximum service time to same row:
dram[0]:      5854      5855      5890      5889      6090      6077      6136      6179      6348      6362      6477      6556      6634      6635      6903      6836 
dram[1]:      5854      5855      5890      8162      8002      6077      6136      6179      6348      6362      6466      6506      6602      6632      6971      6844 
dram[2]:      5854      5855      5890      5889      6083      6070      6116      6154      6353      6310      6441      6443      6623      6694      6863      6934 
dram[3]:      5854      5855      5890      5889      6083      6070      6116      6154      6339      6310      6456      6422      6654      6689      6886      6911 
dram[4]:      5854      5855      5890      5889      6078      6080      6185      6186      6366      6387      6514      6492      6628      6579      6848      6920 
dram[5]:      5854      5855      5890      5889      6078      6080      6185      6186      6383      7949      6539      6521      6609      6594      6825      6860 
dram[6]:      5854      5855      5890      5889      6078      6080      6185      6206      6342      6369      6460      6497      6635      6617      6888      6874 
dram[7]:      5854      5855      5890      5889      6078      6080      6185      6206      6350      6351      6504      6480      6610      6651      6821      6822 
dram[8]:      5849      5852      5874      5876      6105      6106      6120      6137      6320      6340      6496      6590      6656      6648      6885      6861 
dram[9]:      5849      5852      5874      5876      6105      6106      6120      6137      6320      6340      6485      7964      6623      6663      6945      6824 
dram[10]:      5849      5852     10073      5876      6112      6105      6113      6123      6324      6304      6883      6467      6588      6658      6790      6947 
dram[11]:      5849      5852      5874      5876      6112      6105      6113      6123      6305      6300      6490      6506      6647      6711      6858      6952 
dram[12]:      5849      5852      5874      7512      6385      6077      6164      6134      6322      6369      6533      6518      6635      6606      6788      6887 
dram[13]:      5849      5852      5874      5876      6076      6077      6164      6134      6323      6340      6512      6545      6624      6603      6713      6845 
dram[14]:      5849      5852      5874      5876      6076      6077      6146      6147      6443      6346      6482      6515      6659      6678      6772      6821 
dram[15]:      5849      5852      5874      5876      6076      6077      6146      6147      6316      6345      6522      6524      6636      6692      6736      6788 
dram[16]:      5864      5865      5889      5884      6033      6024      6137      6178      6322      6339      6454      6530      6606      6608      6862      6832 
dram[17]:      5864      5865      5889      5884      6033      6024      6137      6178      6304      6347      6464      8444      6585      6612      6896      6797 
dram[18]:      5864      5865      5889      5884      6033      6029      6140      6159      6338      6300      6431      6455      6563      6652      6806      6927 
dram[19]:      5864      5865      5889      5884      6388      6029      6140      6159      6300      6302      6437      6430      6654      6732      6839      6929 
dram[20]:      5864      5865      5889      5884      6029      6016      6170      6171      6314      6352      6497      6480      6592      6633      6814      6958 
dram[21]:      5864      5865      5889      5884      6029      6016      6170      6171      6327      6344      6512      6513      6580      6600      6753      6909 
dram[22]:      5864      5865      5889      5884      6029      6016      6143      6189      7501      6334      6458      6470      6602      6639      6827      6870 
dram[23]:      5864      5865      5889      5884      6029      6016      6143      6189      6327      6333      6488      6467      6602      6652      6747      6813 
dram[24]:      5859      5860      5880      5877      6060      6042      6104      6125      6308      6333      6504      6582      6663      6626      6930      6891 
dram[25]:      5859      5860      5880      5877      6060      6042      6104      6125      6306      6354      6464      6515      6676      6626      6981      6862 
dram[26]:      5859      5860      5880      5877      6060      6062      6102      6123      6341      6304      6440      6467      6650      6651      6836      6924 
dram[27]:      5859      5860      5880      5877      6060      6763      6102      6123      6304      6305      6494      6444      6640      6675      6882      6854 
dram[28]:      5859      5860      5880      5877      6008      6002      6117      6113      6386      6358      6498      6500      6629      6614      6858      6873 
dram[29]:      5859      5860      5880      5877      6008      7388      6117      6113      6381      7711      6500      6513      6622      6576      6802      6938 
dram[30]:      5859      5860      5880      5877      6008      6002      6131      6118      6318      6320      6483      6484      6725      6664      6850      6887 
dram[31]:      5859      5860      5880      5877      6008      6002      6131      6118      6338      6339      6491      6478      6615      6657      6833      6870 
average row accesses per activate:
dram[0]:  4.365285  4.406196  4.110040  4.192593  4.395510  4.328814  4.338751  4.342443  4.289696  4.670340  4.247927  4.162867  3.987431  4.105816  3.839219  3.855522 
dram[1]:  4.325661  4.254180  4.222038  4.249164  4.454864  4.296047  4.396194  4.406603  4.508865  4.798867  4.180772  4.222776  4.042298  4.076613  3.887292  3.927969 
dram[2]:  4.346746  4.400688  4.331637  4.267169  4.399827  4.361775  4.428945  4.262542  4.389129  4.708603  4.215881  4.239669  4.077787  4.141579  3.782544  3.921779 
dram[3]:  4.292125  4.313560  4.243943  4.198184  4.527629  4.274937  4.405030  4.326808  4.386344  4.666360  4.187551  4.187500  4.074759  4.112195  3.884411  3.846270 
dram[4]:  4.257450  4.434188  4.279934  4.194127  4.408198  4.210098  4.465742  4.317647  4.346678  4.598390  4.243243  4.168163  3.990654  4.077229  3.954023  3.996151 
dram[5]:  4.231023  4.309287  4.223587  4.206051  4.467882  4.125400  4.350042  4.248756  4.275084  4.454702  4.143664  4.086030  4.078400  4.048896  3.946401  3.849963 
dram[6]:  4.274790  4.288590  4.231343  4.186831  4.511505  4.322881  4.464035  4.364414  4.292334  4.573874  4.286678  4.213753  3.960094  4.106159  3.940724  3.913410 
dram[7]:  4.408658  4.358650  4.270539  4.171545  4.401372  4.372549  4.356351  4.347789  4.320339  4.704044  4.187244  4.252693  4.109677  4.052506  3.832836  3.939417 
dram[8]:  4.251678  4.324852  4.221675  4.100241  4.220564  4.140194  4.282701  4.356410  4.316327  4.721811  4.144598  4.087550  4.092221  4.002364  3.870061  3.869301 
dram[9]:  4.163517  4.252720  4.312764  4.111201  4.515124  4.386735  4.400173  4.384283  4.287764  4.628520  4.194901  4.057554  3.946304  4.130081  3.785926  3.871287 
dram[10]:  4.213278  4.382504  4.302267  4.340390  4.489006  4.288721  4.244370  4.286074  4.370912  4.575514  4.131280  4.122168  4.041303  4.066135  3.761062  3.928074 
dram[11]:  4.260067  4.252087  4.280437  4.156173  4.345034  4.181967  4.381896  4.414124  4.208782  4.668813  4.254576  4.248536  3.989756  4.160524  3.871581  3.820570 
dram[12]:  4.061111  4.153722  3.986791  3.969040  4.121090  4.155897  4.242774  4.176039  4.137097  4.390452  4.046566  4.044234  3.891089  4.086302  3.767988  3.743627 
dram[13]:  4.343776  4.315481  4.227530  4.147791  4.418166  4.153537  4.318718  4.387617  4.387650  4.574934  4.151564  4.155897  4.155159  4.140800  3.793944  3.862199 
dram[14]:  4.216887  4.320339  4.257904  4.185398  4.385542  4.212696  4.492064  4.327119  4.298319  4.609009  4.246051  4.287521  3.939488  4.017309  3.840634  3.902066 
dram[15]:  4.377797  4.341526  4.324979  4.154157  4.374573  4.245017  4.427951  4.397942  4.345532  4.626126  4.302852  4.104418  4.119259  4.065183  3.930876  3.858118 
dram[16]:  4.310580  4.356410  4.293277  4.144020  4.355860  4.278385  4.318105  4.427826  4.405382  4.624094  4.190633  4.082731  4.110300  4.034948  3.894897  3.901074 
dram[17]:  4.362468  4.359589  4.232232  4.211047  4.389081  4.291491  4.455341  4.515583  4.427574  4.507515  4.101286  4.170492  3.869665  4.166667  3.877193  3.844646 
dram[18]:  4.157636  4.432667  4.262063  4.247920  4.377797  4.300505  4.357265  4.324003  4.262144  4.622403  4.164763  4.142626  4.005542  4.073600  3.741581  3.891788 
dram[19]:  4.303466  4.326253  4.386986  4.124294  4.478414  4.248748  4.344739  4.369509  4.338737  4.683241  4.265272  4.190280  4.039075  4.202145  3.865092  3.875572 
dram[20]:  4.278565  4.227569  4.207865  4.110493  4.489565  4.293334  4.336683  4.399658  4.231908  4.614638  4.255161  4.192151  4.016432  4.212611  3.895976  3.844776 
dram[21]:  4.391603  4.309227  4.314214  4.172860  4.402575  4.280397  4.387042  4.363943  4.407917  4.572310  4.166126  4.210741  4.118358  4.144346  3.857785  3.866467 
dram[22]:  4.284628  4.298658  4.345148  4.171964  4.318914  4.284751  4.451613  4.392580  4.289319  4.657871  4.172272  4.280776  4.054357  4.120870  3.838636  3.847432 
dram[23]:  4.354701  4.379898  4.239506  4.202284  4.408816  4.306723  4.301266  4.345794  4.341568  4.567376  4.258549  4.263114  4.115602  4.190984  3.932464  3.896342 
dram[24]:  4.266667  4.529255  4.229942  4.284273  4.387597  4.292683  4.328791  4.344416  4.283784  4.758879  4.254153  4.137652  4.088853  4.117264  3.911653  3.870943 
dram[25]:  4.296203  4.280100  4.242096  4.200658  4.386735  4.330501  4.446194  4.508007  4.303056  4.695370  4.254787  4.091566  4.037480  4.204470  3.769231  3.917178 
dram[26]:  4.303133  4.510150  4.230705  4.363636  4.503979  4.406897  4.348123  4.364102  4.315567  4.628182  4.261051  4.233389  4.056090  4.117168  3.781135  3.931591 
dram[27]:  4.295110  4.497809  4.252720  4.057416  4.340734  4.287395  4.361684  4.345594  4.342196  4.725581  4.345532  4.205785  3.954723  4.172698  3.798958  3.938996 
dram[28]:  4.282753  4.241407  4.301667  4.240558  4.418306  4.242054  4.466899  4.427461  4.303437  4.646847  4.169355  4.222405  4.003934  4.047768  3.979876  3.966616 
dram[29]:  4.407534  4.546971  4.397776  4.180567  4.640864  4.279570  4.385141  4.419300  4.439827  4.689250  4.304817  4.233361  4.149593  4.134304  3.940061  3.912320 
dram[30]:  4.327674  4.348600  4.250417  4.106109  4.405685  4.243983  4.488085  4.370497  4.274329  4.768075  4.268456  4.328802  4.007943  4.090763  3.936483  3.953560 
dram[31]:  4.495146  4.428818  4.343220  4.147727  4.371478  4.236319  4.355499  4.431288  4.452797  4.820320  4.193920  4.256432  4.189100  4.198347  3.850936  3.874622 
average row locality = 2616829/619111 = 4.226753
number of total memory accesses made:
dram[0]:         0         0         0         0         0         0         0         0         0         0         0         0         0         0         0         0 
dram[1]:         0         0         0         0         0         0         0         0         0         0         0         0         0         0         0         0 
dram[2]:         0         0         0         0         0         0         0         0         0         0         0         0         0         0         0         0 
dram[3]:         0         0         0         0         0         0         0         0         0         0         0         0         0         0         0         0 
dram[4]:         0         0         0         0         0         0         0         0         0         0         0         0         0         0         0         0 
dram[5]:         0         0         0         0         0         0         0         0         0         0         0         0         0         0         0         0 
dram[6]:         0         0         0         0         0         0         0         0         0         0         0         0         0         0         0         0 
dram[7]:         0         0         0         0         0         0         0         0         0         0         0         0         0         0         0         0 
dram[8]:         0         0         0         0         0         0         0         0         0         0         0         0         0         0         0         0 
dram[9]:         0         0         0         0         0         0         0         0         0         0         0         0         0         0         0         0 
dram[10]:         0         0         0         0         0         0         0         0         0         0         0         0         0         0         0         0 
dram[11]:         0         0         0         0         0         0         0         0         0         0         0         0         0         0         0         0 
dram[12]:         0         0         0         0         0         0         0         0         0         0         0         0         0         0         0         0 
dram[13]:         0         0         0         0         0         0         0         0         0         0         0         0         0         0         0         0 
dram[14]:         0         0         0         0         0         0         0         0         0         0         0         0         0         0         0         0 
dram[15]:         0         0         0         0         0         0         0         0         0         0         0         0         0         0         0         0 
dram[16]:         0         0         0         0         0         0         0         0         0         0         0         0         0         0         0         0 
dram[17]:         0         0         0         0         0         0         0         0         0         0         0         0         0         0         0         0 
dram[18]:         0         0         0         0         0         0         0         0         0         0         0         0         0         0         0         0 
dram[19]:         0         0         0         0         0         0         0         0         0         0         0         0         0         0         0         0 
dram[20]:         0         0         0         0         0         0         0         0         0         0         0         0         0         0         0         0 
dram[21]:         0         0         0         0         0         0         0         0         0         0         0         0         0         0         0         0 
dram[22]:         0         0         0         0         0         0         0         0         0         0         0         0         0         0         0         0 
dram[23]:         0         0         0         0         0         0         0         0         0         0         0         0         0         0         0         0 
dram[24]:         0         0         0         0         0         0         0         0         0         0         0         0         0         0         0         0 
dram[25]:         0         0         0         0         0         0         0         0         0         0         0         0         0         0         0         0 
dram[26]:         0         0         0         0         0         0         0         0         0         0         0         0         0         0         0         0 
dram[27]:         0         0         0         0         0         0         0         0         0         0         0         0         0         0         0         0 
dram[28]:         0         0         0         0         0         0         0         0         0         0         0         0         0         0         0         0 
dram[29]:         0         0         0         0         0         0         0         0         0         0         0         0         0         0         0         0 
dram[30]:         0         0         0         0         0         0         0         0         0         0         0         0         0         0         0         0 
dram[31]:         0         0         0         0         0         0         0         0         0         0         0         0         0         0         0         0 
total accesses: 0
min_bank_accesses = 0!
min_chip_accesses = 0!
number of total read accesses:
dram[0]:      4132      4155      4147      4128      4130      4151      4107      4121      4121      4129      4181      4169      4139      4144      4195      4210 
dram[1]:      4134      4124      4125      4123      4125      4148      4115      4108      4128      4123      4146      4141      4124      4121      4221      4231 
dram[2]:      4146      4153      4145      4130      4129      4156      4109      4127      4132      4130      4151      4189      4152      4152      4198      4231 
dram[3]:      4130      4125      4121      4130      4123      4136      4112      4121      4122      4120      4174      4158      4131      4127      4197      4214 
dram[4]:      4199      4223      4219      4184      4203      4205      4180      4173      4144      4177      4246      4170      4187      4188      4249      4304 
dram[5]:      4197      4223      4195      4178      4180      4207      4153      4160      4154      4196      4195      4236      4170      4192      4245      4328 
dram[6]:      4147      4151      4137      4130      4139      4136      4120      4133      4134      4115      4150      4154      4126      4129      4213      4219 
dram[7]:      4163      4192      4180      4161      4166      4170      4140      4146      4140      4155      4185      4200      4162      4161      4227      4253 
dram[8]:      4140      4135      4174      4146      4130      4157      4110      4135      4121      4152      4159      4147      4165      4143      4181      4209 
dram[9]:      4128      4118      4135      4143      4118      4135      4130      4114      4127      4140      4162      4139      4129      4148      4195      4192 
dram[10]:      4142      4145      4165      4167      4142      4142      4122      4141      4126      4163      4155      4155      4157      4167      4185      4193 
dram[11]:      4136      4129      4139      4130      4120      4138      4118      4100      4128      4118      4175      4144      4126      4149      4186      4201 
[...]

------------------------------------------------------------------------

Row_Buffer_Locality = 0.766437
Row_Buffer_Locality_read = 0.849576
Row_Buffer_Locality_write = 0.416146
Bank_Level_Parallism = 11.866007
Bank_Level_Parallism_Col = 8.789701
Bank_Level_Parallism_Ready = 3.524520
write_to_read_ratio_blp_rw_average = 0.592980
GrpLevelPara = 3.754433 

BW Util details:
bwutil = 0.730907 
total_CMD = 1769261 
util_bw = 1293165 
Wasted_Col = 378206 
Wasted_Row = 5963 
Idle = 91927 

BW Util Bottlenecks: 
RCDc_limit = 347121 
RCDWRc_limit = 276503 
WTRc_limit = 510722 
RTWc_limit = 2195583 
CCDLc_limit = 451755 
rwq = 0 
CCDLc_limit_alone = 224017 
WTRc_limit_alone = 456679 
RTWc_limit_alone = 2021888 

Commands details: 
total_CMD = 1769261 
n_nop = 372880 
Read = 663377 
Write = 0 
L2_Alloc = 0 
L2_WB = 629788 
n_act = 191714 
n_pre = 191698 
n_ref = 0 
n_req = 820824 
total_req = 1293165 

Dual Bus Interface Util: 
issued_total_row = 383412 
issued_total_col = 1293165 
Row_Bus_Util =  0.216707 
CoL_Bus_Util = 0.730907 
Either_Row_CoL_Bus_Util = 0.789245 
Issued_on_Two_Bus_Simul_Util = 0.158369 
issued_two_Eff = 0.200659 
queue_avg = 56.298927 


dram_util_bins: 0 0 0 0 0 0 0 0 0 0
dram_eff_bins: 0 0 0 0 0 0 0 0 0 0
mrqq: max=64 avg=56.2989
Memory Partition 29: 
Cache L2_bank_058:
MSHR contents

Cache L2_bank_059:
MSHR contents

In Dram Latency Queue (total = 0): 
DRAM[29]: 16 bks, busW=16 BL=2 CL=14, tRRD=4 tCCD=1, tRCD=14 tRAS=33 tRP=14 tRC=47
n_cmd=1769261 n_nop=372186 n_act=192365 n_pre=192349 n_ref_event=0 n_req=821587 n_rd=664164 n_rd_L2_A=0 n_write=0 n_wr_bk=629692 bw_util=0.7313
n_activity=1682788 dram_eff=0.7689
bk0: 41844a 560709i bk1: 41874a 559239i bk2: 41542a 542657i bk3: 41513a 552023i bk4: 41555a 569280i bk5: 41675a 577721i bk6: 41408a 560226i bk7: 41554a 564487i bk8: 41319a 576529i bk9: 41434a 588350i bk10: 41437a 595519i bk11: 41379a 603850i bk12: 41307a 590207i bk13: 41228a 584419i bk14: 41584a 587043i bk15: 41511a 573749i 

------------------------------------------------------------------------

Row_Buffer_Locality = 0.765862
Row_Buffer_Locality_read = 0.849170
Row_Buffer_Locality_write = 0.414387
Bank_Level_Parallism = 11.891839
Bank_Level_Parallism_Col = 8.790159
Bank_Level_Parallism_Ready = 3.501400
write_to_read_ratio_blp_rw_average = 0.592529
GrpLevelPara = 3.755547 

BW Util details:
bwutil = 0.731297 
total_CMD = 1769261 
util_bw = 1293856 
Wasted_Col = 377603 
Wasted_Row = 5637 
Idle = 92165 

BW Util Bottlenecks: 
RCDc_limit = 347434 
RCDWRc_limit = 276246 
WTRc_limit = 512632 
RTWc_limit = 2208044 
CCDLc_limit = 454883 
rwq = 0 
CCDLc_limit_alone = 225568 
WTRc_limit_alone = 457837 
RTWc_limit_alone = 2033524 

Commands details: 
total_CMD = 1769261 
n_nop = 372186 
Read = 664164 
Write = 0 
L2_Alloc = 0 
L2_WB = 629692 
n_act = 192365 
n_pre = 192349 
n_ref = 0 
n_req = 821587 
total_req = 1293856 

Dual Bus Interface Util: 
issued_total_row = 384714 
issued_total_col = 1293856 
Row_Bus_Util =  0.217443 
CoL_Bus_Util = 0.731297 
Either_Row_CoL_Bus_Util = 0.789638 
Issued_on_Two_Bus_Simul_Util = 0.159103 
issued_two_Eff = 0.201489 
queue_avg = 56.780975 


dram_util_bins: 0 0 0 0 0 0 0 0 0 0
dram_eff_bins: 0 0 0 0 0 0 0 0 0 0
mrqq: max=64 avg=56.781
Memory Partition 30: 
Cache L2_bank_060:
MSHR contents

Cache L2_bank_061:
MSHR contents

In Dram Latency Queue (total = 0): 
DRAM[30]: 16 bks, busW=16 BL=2 CL=14, tRRD=4 tCCD=1, tRCD=14 tRAS=33 tRP=14 tRC=47
n_cmd=1769261 n_nop=373929 n_act=191466 n_pre=191450 n_ref_event=0 n_req=819684 n_rd=662243 n_rd_L2_A=0 n_write=0 n_wr_bk=629764 bw_util=0.7303
n_activity=1683621 dram_eff=0.7674
bk0: 41661a 564538i bk1: 41666a 563750i bk2: 41413a 566150i bk3: 41468a 554994i bk4: 41437a 557473i bk5: 41522a 584898i bk6: 41386a 576034i bk7: 41336a 572816i bk8: 41364a 586571i bk9: 41212a 602648i bk10: 41293a 596363i bk11: 41325a 603813i bk12: 41136a 593523i bk13: 41245a 576513i bk14: 41343a 612163i bk15: 41436a 592167i 

------------------------------------------------------------------------

Row_Buffer_Locality = 0.766415
Row_Buffer_Locality_read = 0.850028
Row_Buffer_Locality_write = 0.414714
Bank_Level_Parallism = 11.820912
Bank_Level_Parallism_Col = 8.749367
Bank_Level_Parallism_Ready = 3.507369
write_to_read_ratio_blp_rw_average = 0.592344
GrpLevelPara = 3.747580 

BW Util details:
bwutil = 0.730252 
total_CMD = 1769261 
util_bw = 1292007 
Wasted_Col = 378646 
Wasted_Row = 6328 
Idle = 92280 

BW Util Bottlenecks: 
RCDc_limit = 346668 
RCDWRc_limit = 276516 
WTRc_limit = 514700 
RTWc_limit = 2175766 
CCDLc_limit = 451390 
rwq = 0 
CCDLc_limit_alone = 224989 
WTRc_limit_alone = 460106 
RTWc_limit_alone = 2003959 

Commands details: 
total_CMD = 1769261 
n_nop = 373929 
Read = 662243 
Write = 0 
L2_Alloc = 0 
L2_WB = 629764 
n_act = 191466 
n_pre = 191450 
n_ref = 0 
n_req = 819684 
total_req = 1292007 

Dual Bus Interface Util: 
issued_total_row = 382916 
issued_total_col = 1292007 
Row_Bus_Util =  0.216427 
CoL_Bus_Util = 0.730252 
Either_Row_CoL_Bus_Util = 0.788652 
Issued_on_Two_Bus_Simul_Util = 0.158027 
issued_two_Eff = 0.200376 
queue_avg = 56.013245 


dram_util_bins: 0 0 0 0 0 0 0 0 0 0
dram_eff_bins: 0 0 0 0 0 0 0 0 0 0
mrqq: max=64 avg=56.0132
Memory Partition 31: 
Cache L2_bank_062:
MSHR contents

Cache L2_bank_063:
MSHR contents

In Dram Latency Queue (total = 0): 
DRAM[31]: 16 bks, busW=16 BL=2 CL=14, tRRD=4 tCCD=1, tRCD=14 tRAS=33 tRP=14 tRC=47
n_cmd=1769261 n_nop=372323 n_act=192676 n_pre=192660 n_ref_event=0 n_req=820797 n_rd=663364 n_rd_L2_A=0 n_write=0 n_wr_bk=629732 bw_util=0.7309
n_activity=1683238 dram_eff=0.7682
bk0: 41778a 553880i bk1: 41737a 563748i bk2: 41503a 549771i bk3: 41498a 551570i bk4: 41538a 569796i bk5: 41669a 578305i bk6: 41420a 575922i bk7: 41496a 560069i bk8: 41287a 591384i bk9: 41394a 593531i bk10: 41309a 588507i bk11: 41375a 594150i bk12: 41227a 596593i bk13: 41210a 582239i bk14: 41471a 586713i bk15: 41452a 585255i 

------------------------------------------------------------------------

Row_Buffer_Locality = 0.765257
Row_Buffer_Locality_read = 0.849348
Row_Buffer_Locality_write = 0.410930
Bank_Level_Parallism = 11.870075
Bank_Level_Parallism_Col = 8.774485
Bank_Level_Parallism_Ready = 3.514113
write_to_read_ratio_blp_rw_average = 0.593143
GrpLevelPara = 3.751822 

BW Util details:
bwutil = 0.730868 
total_CMD = 1769261 
util_bw = 1293096 
Wasted_Col = 377916 
Wasted_Row = 6108 
Idle = 92141 

BW Util Bottlenecks: 
RCDc_limit = 345293 
RCDWRc_limit = 278529 
WTRc_limit = 509130 
RTWc_limit = 2191343 
CCDLc_limit = 445824 
rwq = 0 
CCDLc_limit_alone = 222273 
WTRc_limit_alone = 456392 
RTWc_limit_alone = 2020530 

Commands details: 
total_CMD = 1769261 
n_nop = 372323 
Read = 663364 
Write = 0 
L2_Alloc = 0 
L2_WB = 629732 
n_act = 192676 
n_pre = 192660 
n_ref = 0 
n_req = 820797 
total_req = 1293096 

Dual Bus Interface Util: 
issued_total_row = 385336 
issued_total_col = 1293096 
Row_Bus_Util =  0.217795 
CoL_Bus_Util = 0.730868 
Either_Row_CoL_Bus_Util = 0.789560 
Issued_on_Two_Bus_Simul_Util = 0.159103 
issued_two_Eff = 0.201508 
queue_avg = 56.185394 


dram_util_bins: 0 0 0 0 0 0 0 0 0 0
dram_eff_bins: 0 0 0 0 0 0 0 0 0 0
mrqq: max=64 avg=56.1854

========= L2 cache stats =========
L2_cache_bank[0]: Access = 870440, Miss = 647616, Miss_rate = 0.744, Pending_hits = 14623, Reservation_fails = 0
L2_cache_bank[1]: Access = 870440, Miss = 647756, Miss_rate = 0.744, Pending_hits = 14304, Reservation_fails = 0
L2_cache_bank[2]: Access = 870440, Miss = 648008, Miss_rate = 0.744, Pending_hits = 14418, Reservation_fails = 0
L2_cache_bank[3]: Access = 870440, Miss = 647980, Miss_rate = 0.744, Pending_hits = 14170, Reservation_fails = 0
L2_cache_bank[4]: Access = 870440, Miss = 648747, Miss_rate = 0.745, Pending_hits = 13046, Reservation_fails = 0
L2_cache_bank[5]: Access = 870440, Miss = 648874, Miss_rate = 0.745, Pending_hits = 13289, Reservation_fails = 0
L2_cache_bank[6]: Access = 870440, Miss = 648276, Miss_rate = 0.745, Pending_hits = 13843, Reservation_fails = 0
L2_cache_bank[7]: Access = 870440, Miss = 648154, Miss_rate = 0.745, Pending_hits = 14574, Reservation_fails = 0
L2_cache_bank[8]: Access = 870440, Miss = 647853, Miss_rate = 0.744, Pending_hits = 14049, Reservation_fails = 0
L2_cache_bank[9]: Access = 870440, Miss = 648163, Miss_rate = 0.745, Pending_hits = 13553, Reservation_fails = 0
L2_cache_bank[10]: Access = 870440, Miss = 648226, Miss_rate = 0.745, Pending_hits = 14754, Reservation_fails = 0
L2_cache_bank[11]: Access = 870440, Miss = 648134, Miss_rate = 0.745, Pending_hits = 15086, Reservation_fails = 0
L2_cache_bank[12]: Access = 870440, Miss = 647799, Miss_rate = 0.744, Pending_hits = 13257, Reservation_fails = 0
L2_cache_bank[13]: Access = 870440, Miss = 647684, Miss_rate = 0.744, Pending_hits = 13886, Reservation_fails = 0
L2_cache_bank[14]: Access = 870440, Miss = 647583, Miss_rate = 0.744, Pending_hits = 14784, Reservation_fails = 0
L2_cache_bank[15]: Access = 870440, Miss = 647540, Miss_rate = 0.744, Pending_hits = 14987, Reservation_fails = 0
L2_cache_bank[16]: Access = 870620, Miss = 647822, Miss_rate = 0.744, Pending_hits = 14747, Reservation_fails = 0
L2_cache_bank[17]: Access = 870620, Miss = 647868, Miss_rate = 0.744, Pending_hits = 15040, Reservation_fails = 0
L2_cache_bank[18]: Access = 870615, Miss = 648295, Miss_rate = 0.745, Pending_hits = 14370, Reservation_fails = 0
L2_cache_bank[19]: Access = 870615, Miss = 648095, Miss_rate = 0.744, Pending_hits = 14204, Reservation_fails = 0
L2_cache_bank[20]: Access = 870615, Miss = 648760, Miss_rate = 0.745, Pending_hits = 14291, Reservation_fails = 0
L2_cache_bank[21]: Access = 870615, Miss = 649023, Miss_rate = 0.745, Pending_hits = 14444, Reservation_fails = 0
L2_cache_bank[22]: Access = 870620, Miss = 648076, Miss_rate = 0.744, Pending_hits = 13894, Reservation_fails = 0
L2_cache_bank[23]: Access = 870620, Miss = 648177, Miss_rate = 0.745, Pending_hits = 13775, Reservation_fails = 0
L2_cache_bank[24]: Access = 870620, Miss = 647727, Miss_rate = 0.744, Pending_hits = 16101, Reservation_fails = 0
L2_cache_bank[25]: Access = 870620, Miss = 647613, Miss_rate = 0.744, Pending_hits = 15817, Reservation_fails = 0
L2_cache_bank[26]: Access = 870615, Miss = 648297, Miss_rate = 0.745, Pending_hits = 15119, Reservation_fails = 0
L2_cache_bank[27]: Access = 870615, Miss = 648069, Miss_rate = 0.744, Pending_hits = 15889, Reservation_fails = 0
L2_cache_bank[28]: Access = 870615, Miss = 647514, Miss_rate = 0.744, Pending_hits = 15286, Reservation_fails = 0
L2_cache_bank[29]: Access = 870615, Miss = 647563, Miss_rate = 0.744, Pending_hits = 15771, Reservation_fails = 0
L2_cache_bank[30]: Access = 870620, Miss = 647817, Miss_rate = 0.744, Pending_hits = 15248, Reservation_fails = 0
L2_cache_bank[31]: Access = 870620, Miss = 647855, Miss_rate = 0.744, Pending_hits = 15019, Reservation_fails = 0
L2_cache_bank[32]: Access = 870615, Miss = 647847, Miss_rate = 0.744, Pending_hits = 15078, Reservation_fails = 0
L2_cache_bank[33]: Access = 870615, Miss = 647882, Miss_rate = 0.744, Pending_hits = 15124, Reservation_fails = 0
L2_cache_bank[34]: Access = 870620, Miss = 647836, Miss_rate = 0.744, Pending_hits = 14986, Reservation_fails = 0
L2_cache_bank[35]: Access = 870620, Miss = 647844, Miss_rate = 0.744, Pending_hits = 14584, Reservation_fails = 0
L2_cache_bank[36]: Access = 870620, Miss = 648809, Miss_rate = 0.745, Pending_hits = 14194, Reservation_fails = 0
L2_cache_bank[37]: Access = 870620, Miss = 648939, Miss_rate = 0.745, Pending_hits = 14355, Reservation_fails = 0
L2_cache_bank[38]: Access = 870615, Miss = 648316, Miss_rate = 0.745, Pending_hits = 13640, Reservation_fails = 0
L2_cache_bank[39]: Access = 870615, Miss = 648204, Miss_rate = 0.745, Pending_hits = 13654, Reservation_fails = 0
L2_cache_bank[40]: Access = 870615, Miss = 648048, Miss_rate = 0.744, Pending_hits = 14326, Reservation_fails = 0
L2_cache_bank[41]: Access = 870615, Miss = 647903, Miss_rate = 0.744, Pending_hits = 13988, Reservation_fails = 0
L2_cache_bank[42]: Access = 870620, Miss = 648396, Miss_rate = 0.745, Pending_hits = 14026, Reservation_fails = 0
L2_cache_bank[43]: Access = 870620, Miss = 648322, Miss_rate = 0.745, Pending_hits = 14631, Reservation_fails = 0
L2_cache_bank[44]: Access = 870620, Miss = 647611, Miss_rate = 0.744, Pending_hits = 14147, Reservation_fails = 0
L2_cache_bank[45]: Access = 870620, Miss = 647498, Miss_rate = 0.744, Pending_hits = 14675, Reservation_fails = 0
L2_cache_bank[46]: Access = 870615, Miss = 647905, Miss_rate = 0.744, Pending_hits = 14826, Reservation_fails = 0
L2_cache_bank[47]: Access = 870615, Miss = 647917, Miss_rate = 0.744, Pending_hits = 14614, Reservation_fails = 0
L2_cache_bank[48]: Access = 870440, Miss = 648251, Miss_rate = 0.745, Pending_hits = 14319, Reservation_fails = 0
L2_cache_bank[49]: Access = 870440, Miss = 648264, Miss_rate = 0.745, Pending_hits = 14333, Reservation_fails = 0
L2_cache_bank[50]: Access = 870440, Miss = 647968, Miss_rate = 0.744, Pending_hits = 13921, Reservation_fails = 0
L2_cache_bank[51]: Access = 870440, Miss = 647953, Miss_rate = 0.744, Pending_hits = 14050, Reservation_fails = 0
L2_cache_bank[52]: Access = 870440, Miss = 648779, Miss_rate = 0.745, Pending_hits = 14451, Reservation_fails = 0
L2_cache_bank[53]: Access = 870440, Miss = 648986, Miss_rate = 0.746, Pending_hits = 14360, Reservation_fails = 0
L2_cache_bank[54]: Access = 870440, Miss = 648050, Miss_rate = 0.745, Pending_hits = 14426, Reservation_fails = 0
L2_cache_bank[55]: Access = 870440, Miss = 647922, Miss_rate = 0.744, Pending_hits = 14616, Reservation_fails = 0
L2_cache_bank[56]: Access = 870440, Miss = 647820, Miss_rate = 0.744, Pending_hits = 15294, Reservation_fails = 0
L2_cache_bank[57]: Access = 870440, Miss = 647877, Miss_rate = 0.744, Pending_hits = 14834, Reservation_fails = 0
L2_cache_bank[58]: Access = 870440, Miss = 648417, Miss_rate = 0.745, Pending_hits = 15343, Reservation_fails = 0
L2_cache_bank[59]: Access = 870440, Miss = 648067, Miss_rate = 0.745, Pending_hits = 15592, Reservation_fails = 0
L2_cache_bank[60]: Access = 870440, Miss = 647380, Miss_rate = 0.744, Pending_hits = 15104, Reservation_fails = 0
L2_cache_bank[61]: Access = 870440, Miss = 647183, Miss_rate = 0.744, Pending_hits = 15360, Reservation_fails = 0
L2_cache_bank[62]: Access = 870440, Miss = 647882, Miss_rate = 0.744, Pending_hits = 13913, Reservation_fails = 0
L2_cache_bank[63]: Access = 870440, Miss = 647802, Miss_rate = 0.744, Pending_hits = 13720, Reservation_fails = 0
L2_total_cache_accesses = 55713840
L2_total_cache_misses = 41474842
L2_total_cache_miss_rate = 0.7444
L2_total_cache_pending_hits = 930122
L2_total_cache_reservation_fails = 0
L2_total_cache_breakdown:
	L2_cache_stats_breakdown[GLOBAL_ACC_R][HIT] = 13308876
	L2_cache_stats_breakdown[GLOBAL_ACC_R][HIT_RESERVED] = 930122
	L2_cache_stats_breakdown[GLOBAL_ACC_R][MISS] = 5397826
	L2_cache_stats_breakdown[GLOBAL_ACC_R][RESERVATION_FAIL] = 0
	L2_cache_stats_breakdown[GLOBAL_ACC_R][SECTOR_MISS] = 15840216
	L2_cache_stats_breakdown[LOCAL_ACC_R][HIT] = 0
	L2_cache_stats_breakdown[LOCAL_ACC_R][HIT_RESERVED] = 0
	L2_cache_stats_breakdown[LOCAL_ACC_R][MISS] = 0
	L2_cache_stats_breakdown[LOCAL_ACC_R][RESERVATION_FAIL] = 0
	L2_cache_stats_breakdown[LOCAL_ACC_R][SECTOR_MISS] = 0
	L2_cache_stats_breakdown[CONST_ACC_R][HIT] = 0
	L2_cache_stats_breakdown[CONST_ACC_R][HIT_RESERVED] = 0
	L2_cache_stats_breakdown[CONST_ACC_R][MISS] = 0
	L2_cache_stats_breakdown[CONST_ACC_R][RESERVATION_FAIL] = 0
	L2_cache_stats_breakdown[CONST_ACC_R][SECTOR_MISS] = 0
	L2_cache_stats_breakdown[TEXTURE_ACC_R][HIT] = 0
	L2_cache_stats_breakdown[TEXTURE_ACC_R][HIT_RESERVED] = 0
	L2_cache_stats_breakdown[TEXTURE_ACC_R][MISS] = 0
	L2_cache_stats_breakdown[TEXTURE_ACC_R][RESERVATION_FAIL] = 0
	L2_cache_stats_breakdown[TEXTURE_ACC_R][SECTOR_MISS] = 0
	L2_cache_stats_breakdown[GLOBAL_ACC_W][HIT] = 0
	L2_cache_stats_breakdown[GLOBAL_ACC_W][HIT_RESERVED] = 0
	L2_cache_stats_breakdown[GLOBAL_ACC_W][MISS] = 5059200
	L2_cache_stats_breakdown[GLOBAL_ACC_W][RESERVATION_FAIL] = 0
	L2_cache_stats_breakdown[GLOBAL_ACC_W][SECTOR_MISS] = 15177600
	L2_cache_stats_breakdown[LOCAL_ACC_W][HIT] = 0
	L2_cache_stats_breakdown[LOCAL_ACC_W][HIT_RESERVED] = 0
	L2_cache_stats_breakdown[LOCAL_ACC_W][MISS] = 0
	L2_cache_stats_breakdown[LOCAL_ACC_W][RESERVATION_FAIL] = 0
	L2_cache_stats_breakdown[LOCAL_ACC_W][SECTOR_MISS] = 0
	L2_cache_stats_breakdown[L1_WRBK_ACC][HIT] = 0
	L2_cache_stats_breakdown[L1_WRBK_ACC][HIT_RESERVED] = 0
	L2_cache_stats_breakdown[L1_WRBK_ACC][MISS] = 0
	L2_cache_stats_breakdown[L1_WRBK_ACC][RESERVATION_FAIL] = 0
	L2_cache_stats_breakdown[L1_WRBK_ACC][SECTOR_MISS] = 0
	L2_cache_stats_breakdown[L2_WRBK_ACC][HIT] = 0
	L2_cache_stats_breakdown[L2_WRBK_ACC][HIT_RESERVED] = 0
	L2_cache_stats_breakdown[L2_WRBK_ACC][MISS] = 0
	L2_cache_stats_breakdown[L2_WRBK_ACC][RESERVATION_FAIL] = 0
	L2_cache_stats_breakdown[L2_WRBK_ACC][SECTOR_MISS] = 0
	L2_cache_stats_breakdown[INST_ACC_R][HIT] = 0
	L2_cache_stats_breakdown[INST_ACC_R][HIT_RESERVED] = 0
	L2_cache_stats_breakdown[INST_ACC_R][MISS] = 0
	L2_cache_stats_breakdown[INST_ACC_R][RESERVATION_FAIL] = 0
	L2_cache_stats_breakdown[INST_ACC_R][SECTOR_MISS] = 0
	L2_cache_stats_breakdown[L1_WR_ALLOC_R][HIT] = 0
	L2_cache_stats_breakdown[L1_WR_ALLOC_R][HIT_RESERVED] = 0
	L2_cache_stats_breakdown[L1_WR_ALLOC_R][MISS] = 0
	L2_cache_stats_breakdown[L1_WR_ALLOC_R][RESERVATION_FAIL] = 0
	L2_cache_stats_breakdown[L1_WR_ALLOC_R][SECTOR_MISS] = 0
	L2_cache_stats_breakdown[L2_WR_ALLOC_R][HIT] = 0
	L2_cache_stats_breakdown[L2_WR_ALLOC_R][HIT_RESERVED] = 0
	L2_cache_stats_breakdown[L2_WR_ALLOC_R][MISS] = 0
	L2_cache_stats_breakdown[L2_WR_ALLOC_R][RESERVATION_FAIL] = 0
	L2_cache_stats_breakdown[L2_WR_ALLOC_R][SECTOR_MISS] = 0
	L2_cache_stats_breakdown[GLOBAL_ACC_R][TOTAL_ACCESS] = 35477040
	L2_cache_stats_breakdown[GLOBAL_ACC_W][TOTAL_ACCESS] = 20236800
L2_total_cache_reservation_fail_breakdown:
L2_cache_data_port_util = 0.170
L2_cache_fill_port_util = 0.156

icnt_total_pkts_mem_to_simt=55713840
icnt_total_pkts_simt_to_mem=55713840
LD_mem_lat_dist  0 0 0 0 0 0 0 0 0 0 0 0 0 0 0 0 0 0 0 0 0 0 0 0 0 0 0
ST_mem_lat_dist  0 0 0 0 0 0 0 0 0 0 0 0 0 0 0 0 0 0 0 0 0 0 0 0 0 0 0
----------------------------Interconnect-DETAILS--------------------------------
Req_Network_injected_packets_num = 55713840
Req_Network_cycles = 2123116
Req_Network_injected_packets_per_cycle =      26.2415 
Req_Network_conflicts_per_cycle =      25.4037
Req_Network_conflicts_per_cycle_util =      26.4590
Req_Bank_Level_Parallism =      27.3317
Req_Network_in_buffer_full_per_cycle =       0.0000
Req_Network_in_buffer_avg_util =      17.2258
Req_Network_out_buffer_full_per_cycle =       0.2042
Req_Network_out_buffer_avg_util =      58.1827

Reply_Network_injected_packets_num = 55713840
Reply_Network_cycles = 2123116
Reply_Network_injected_packets_per_cycle =       26.2415
Reply_Network_conflicts_per_cycle =        8.6462
Reply_Network_conflicts_per_cycle_util =       9.0132
Reply_Bank_Level_Parallism =      27.3556
Reply_Network_in_buffer_full_per_cycle =       0.0000
Reply_Network_in_buffer_avg_util =       1.2711
Reply_Network_out_buffer_full_per_cycle =       0.0000
Reply_Network_out_buffer_avg_util =       0.3280
----------------------------END-of-Interconnect-DETAILS-------------------------


gpgpu_simulation_time = 0 days, 2 hrs, 59 min, 46 sec (10786 sec)
gpgpu_simulation_rate = 536841 (inst/sec)
gpgpu_simulation_rate = 196 (cycle/sec)
gpgpu_silicon_slowdown = 6122448x
event update
GPGPU-Sim API: cudaEventSynchronize ** waiting for event
GPGPU-Sim API: cudaEventSynchronize ** event detected
IO        : 0.315693
Kernel    : 10781.000000
Copy      : 6.890778
Driver    : 10780.992676
Compute   : 0.004081
CPU/Kernel Overlap: 10781.000000
Timer Wall Time: 10788.204102
GPGPU-Sim: *** exit detected ***
