

        *** GPGPU-Sim Simulator Version 4.0.0  [build gpgpu-sim_git-commit-c6a15ddf9da25f272225633253662a2cf1031232_modified_5.0] ***


GPGPU-Sim PTX: simulation mode 0 (can change with PTX_SIM_MODE_FUNC environment variable:
               1=functional simulation only, 0=detailed performance simulator)
GPGPU-Sim PTX: overriding embedded ptx with ptx file (PTX_SIM_USE_PTX_FILE is set)
GPGPU-Sim: Configuration options:

-save_embedded_ptx                      0 # saves ptx files embedded in binary as <n>.ptx
-keep                                   0 # keep intermediate files created by GPGPU-Sim when interfacing with external programs
-gpgpu_ptx_save_converted_ptxplus                    0 # Saved converted ptxplus to a file
-gpgpu_occupancy_sm_number                   70 # The SM number to pass to ptxas when getting register usage for computing GPU occupancy. This parameter is required in the config.
-ptx_opcode_latency_int      4,13,4,5,145,21 # Opcode latencies for integers <ADD,MAX,MUL,MAD,DIV,SHFL>Default 1,1,19,25,145,32
-ptx_opcode_latency_fp          4,13,4,5,39 # Opcode latencies for single precision floating points <ADD,MAX,MUL,MAD,DIV>Default 1,1,1,1,30
-ptx_opcode_latency_dp         8,19,8,8,330 # Opcode latencies for double precision floating points <ADD,MAX,MUL,MAD,DIV>Default 8,8,8,8,335
-ptx_opcode_latency_sfu                  100 # Opcode latencies for SFU instructionsDefault 8
-ptx_opcode_latency_tesnor                   64 # Opcode latencies for Tensor instructionsDefault 64
-ptx_opcode_initiation_int          2,2,2,2,8,4 # Opcode initiation intervals for integers <ADD,MAX,MUL,MAD,DIV,SHFL>Default 1,1,4,4,32,4
-ptx_opcode_initiation_fp            2,2,2,2,4 # Opcode initiation intervals for single precision floating points <ADD,MAX,MUL,MAD,DIV>Default 1,1,1,1,5
-ptx_opcode_initiation_dp          4,4,4,4,130 # Opcode initiation intervals for double precision floating points <ADD,MAX,MUL,MAD,DIV>Default 8,8,8,8,130
-ptx_opcode_initiation_sfu                    8 # Opcode initiation intervals for sfu instructionsDefault 8
-ptx_opcode_initiation_tensor                   64 # Opcode initiation intervals for tensor instructionsDefault 64
-cdp_latency         7200,8000,100,12000,1600 # CDP API latency <cudaStreamCreateWithFlags, cudaGetParameterBufferV2_init_perWarp, cudaGetParameterBufferV2_perKernel, cudaLaunchDeviceV2_init_perWarp, cudaLaunchDevicV2_perKernel>Default 7200,8000,100,12000,1600
-network_mode                           2 # Interconnection network mode
-inter_config_file                   mesh # Interconnection network config file
-icnt_in_buffer_limit                  512 # in_buffer_limit
-icnt_out_buffer_limit                  512 # out_buffer_limit
-icnt_subnets                           2 # subnets
-icnt_arbiter_algo                      1 # arbiter_algo
-icnt_verbose                           0 # inct_verbose
-icnt_grant_cycles                      1 # grant_cycles
-gpgpu_ptx_use_cuobjdump                    1 # Use cuobjdump to extract ptx and sass from binaries
-gpgpu_experimental_lib_support                    0 # Try to extract code from cuda libraries [Broken because of unknown cudaGetExportTable]
-checkpoint_option                      0 #  checkpointing flag (0 = no checkpoint)
-checkpoint_kernel                      1 #  checkpointing during execution of which kernel (1- 1st kernel)
-checkpoint_CTA                         0 #  checkpointing after # of CTA (< less than total CTA)
-resume_option                          0 #  resume flag (0 = no resume)
-resume_kernel                          0 #  Resume from which kernel (1= 1st kernel)
-resume_CTA                             0 #  resume from which CTA 
-checkpoint_CTA_t                       0 #  resume from which CTA 
-checkpoint_insn_Y                      0 #  resume from which CTA 
-gpgpu_ptx_convert_to_ptxplus                    0 # Convert SASS (native ISA) to ptxplus and run ptxplus
-gpgpu_ptx_force_max_capability                   70 # Force maximum compute capability
-gpgpu_ptx_inst_debug_to_file                    0 # Dump executed instructions' debug information to file
-gpgpu_ptx_inst_debug_file       inst_debug.txt # Executed instructions' debug output file
-gpgpu_ptx_inst_debug_thread_uid                    1 # Thread UID for executed instructions' debug output
-gpgpu_simd_model                       1 # 1 = post-dominator
-gpgpu_shader_core_pipeline              2048:32 # shader core pipeline config, i.e., {<nthread>:<warpsize>}
-gpgpu_tex_cache:l1  N:4:128:256,L:R:m:N:L,T:512:8,128:2 # per-shader L1 texture cache  (READ-ONLY) config  {<nsets>:<bsize>:<assoc>,<rep>:<wr>:<alloc>:<wr_alloc>,<mshr>:<N>:<merge>,<mq>:<rf>}
-gpgpu_const_cache:l1 N:128:64:8,L:R:f:N:L,S:2:64,4 # per-shader L1 constant memory cache  (READ-ONLY) config  {<nsets>:<bsize>:<assoc>,<rep>:<wr>:<alloc>:<wr_alloc>,<mshr>:<N>:<merge>,<mq>} 
-gpgpu_cache:il1     N:64:128:16,L:R:f:N:L,S:2:48,4 # shader L1 instruction cache config  {<nsets>:<bsize>:<assoc>,<rep>:<wr>:<alloc>:<wr_alloc>,<mshr>:<N>:<merge>,<mq>} 
-gpgpu_cache:dl1     S:1:128:256,L:L:s:N:L,A:256:8,16:0,32 # per-shader L1 data cache config  {<nsets>:<bsize>:<assoc>,<rep>:<wr>:<alloc>:<wr_alloc>,<mshr>:<N>:<merge>,<mq> | none}
-gpgpu_l1_banks                         4 # The number of L1 cache banks
-gpgpu_l1_banks_byte_interleaving                   32 # l1 banks byte interleaving granularity
-gpgpu_l1_banks_hashing_function                    0 # l1 banks hashing function
-gpgpu_l1_latency                      20 # L1 Hit Latency
-gpgpu_smem_latency                    20 # smem Latency
-gpgpu_cache:dl1PrefL1                 none # per-shader L1 data cache config  {<nsets>:<bsize>:<assoc>,<rep>:<wr>:<alloc>:<wr_alloc>,<mshr>:<N>:<merge>,<mq> | none}
-gpgpu_cache:dl1PrefShared                 none # per-shader L1 data cache config  {<nsets>:<bsize>:<assoc>,<rep>:<wr>:<alloc>:<wr_alloc>,<mshr>:<N>:<merge>,<mq> | none}
-gpgpu_gmem_skip_L1D                    0 # global memory access skip L1D cache (implements -Xptxas -dlcm=cg, default=no skip)
-gpgpu_perfect_mem                      0 # enable perfect memory mode (no cache miss)
-n_regfile_gating_group                    4 # group of lanes that should be read/written together)
-gpgpu_clock_gated_reg_file                    0 # enable clock gated reg file for power calculations
-gpgpu_clock_gated_lanes                    0 # enable clock gated lanes for power calculations
-gpgpu_shader_registers                65536 # Number of registers per shader core. Limits number of concurrent CTAs. (default 8192)
-gpgpu_registers_per_block                65536 # Maximum number of registers per CTA. (default 8192)
-gpgpu_ignore_resources_limitation                    0 # gpgpu_ignore_resources_limitation (default 0)
-gpgpu_shader_cta                      32 # Maximum number of concurrent CTAs in shader (default 8)
-gpgpu_num_cta_barriers                   16 # Maximum number of named barriers per CTA (default 16)
-gpgpu_n_clusters                      80 # number of processing clusters
-gpgpu_n_cores_per_cluster                    1 # number of simd cores per cluster
-gpgpu_n_cluster_ejection_buffer_size                   32 # number of packets in ejection buffer
-gpgpu_n_ldst_response_buffer_size                    2 # number of response packets in ld/st unit ejection buffer
-gpgpu_shmem_per_block                65536 # Size of shared memory per thread block or CTA (default 48kB)
-gpgpu_shmem_size                   98304 # Size of shared memory per shader core (default 16kB)
-gpgpu_adaptive_cache_config                    1 # adaptive_cache_config
-gpgpu_shmem_sizeDefault                98304 # Size of shared memory per shader core (default 16kB)
-gpgpu_shmem_size_PrefL1                16384 # Size of shared memory per shader core (default 16kB)
-gpgpu_shmem_size_PrefShared                16384 # Size of shared memory per shader core (default 16kB)
-gpgpu_shmem_num_banks                   32 # Number of banks in the shared memory in each shader core (default 16)
-gpgpu_shmem_limited_broadcast                    0 # Limit shared memory to do one broadcast per cycle (default on)
-gpgpu_shmem_warp_parts                    1 # Number of portions a warp is divided into for shared memory bank conflict check 
-gpgpu_mem_unit_ports                    1 # The number of memory transactions allowed per core cycle
-gpgpu_shmem_warp_parts                    1 # Number of portions a warp is divided into for shared memory bank conflict check 
-gpgpu_warpdistro_shader                   -1 # Specify which shader core to collect the warp size distribution from
-gpgpu_warp_issue_shader                    0 # Specify which shader core to collect the warp issue distribution from
-gpgpu_local_mem_map                    1 # Mapping from local memory space address to simulated GPU physical address space (default = enabled)
-gpgpu_num_reg_banks                   16 # Number of register banks (default = 8)
-gpgpu_reg_bank_use_warp_id                    0 # Use warp ID in mapping registers to banks (default = off)
-gpgpu_sub_core_model                    1 # Sub Core Volta/Pascal model (default = off)
-gpgpu_enable_specialized_operand_collector                    0 # enable_specialized_operand_collector
-gpgpu_operand_collector_num_units_sp                    4 # number of collector units (default = 4)
-gpgpu_operand_collector_num_units_dp                    0 # number of collector units (default = 0)
-gpgpu_operand_collector_num_units_sfu                    4 # number of collector units (default = 4)
-gpgpu_operand_collector_num_units_int                    0 # number of collector units (default = 0)
-gpgpu_operand_collector_num_units_tensor_core                    4 # number of collector units (default = 4)
-gpgpu_operand_collector_num_units_mem                    2 # number of collector units (default = 2)
-gpgpu_operand_collector_num_units_gen                    8 # number of collector units (default = 0)
-gpgpu_operand_collector_num_in_ports_sp                    1 # number of collector unit in ports (default = 1)
-gpgpu_operand_collector_num_in_ports_dp                    0 # number of collector unit in ports (default = 0)
-gpgpu_operand_collector_num_in_ports_sfu                    1 # number of collector unit in ports (default = 1)
-gpgpu_operand_collector_num_in_ports_int                    0 # number of collector unit in ports (default = 0)
-gpgpu_operand_collector_num_in_ports_tensor_core                    1 # number of collector unit in ports (default = 1)
-gpgpu_operand_collector_num_in_ports_mem                    1 # number of collector unit in ports (default = 1)
-gpgpu_operand_collector_num_in_ports_gen                    8 # number of collector unit in ports (default = 0)
-gpgpu_operand_collector_num_out_ports_sp                    1 # number of collector unit in ports (default = 1)
-gpgpu_operand_collector_num_out_ports_dp                    0 # number of collector unit in ports (default = 0)
-gpgpu_operand_collector_num_out_ports_sfu                    1 # number of collector unit in ports (default = 1)
-gpgpu_operand_collector_num_out_ports_int                    0 # number of collector unit in ports (default = 0)
-gpgpu_operand_collector_num_out_ports_tensor_core                    1 # number of collector unit in ports (default = 1)
-gpgpu_operand_collector_num_out_ports_mem                    1 # number of collector unit in ports (default = 1)
-gpgpu_operand_collector_num_out_ports_gen                    8 # number of collector unit in ports (default = 0)
-gpgpu_coalesce_arch                   60 # Coalescing arch (GT200 = 13, Fermi = 20)
-gpgpu_num_sched_per_core                    4 # Number of warp schedulers per core
-gpgpu_max_insn_issue_per_warp                    1 # Max number of instructions that can be issued per warp in one cycle by scheduler (either 1 or 2)
-gpgpu_dual_issue_diff_exec_units                    1 # should dual issue use two different execution unit resources (Default = 1)
-gpgpu_simt_core_sim_order                    1 # Select the simulation order of cores in a cluster (0=Fix, 1=Round-Robin)
-gpgpu_pipeline_widths 4,4,4,4,4,4,4,4,4,4,8,4,4 # Pipeline widths ID_OC_SP,ID_OC_DP,ID_OC_INT,ID_OC_SFU,ID_OC_MEM,OC_EX_SP,OC_EX_DP,OC_EX_INT,OC_EX_SFU,OC_EX_MEM,EX_WB,ID_OC_TENSOR_CORE,OC_EX_TENSOR_CORE
-gpgpu_tensor_core_avail                    0 # Tensor Core Available (default=0)
-gpgpu_num_sp_units                     4 # Number of SP units (default=1)
-gpgpu_num_dp_units                     4 # Number of DP units (default=0)
-gpgpu_num_int_units                    4 # Number of INT units (default=0)
-gpgpu_num_sfu_units                    4 # Number of SF units (default=1)
-gpgpu_num_tensor_core_units                    0 # Number of tensor_core units (default=1)
-gpgpu_num_mem_units                    1 # Number if ldst units (default=1) WARNING: not hooked up to anything
-gpgpu_scheduler                      gto # Scheduler configuration: < lrr | gto | two_level_active > If two_level_active:<num_active_warps>:<inner_prioritization>:<outer_prioritization>For complete list of prioritization values see shader.h enum scheduler_prioritization_typeDefault: gto
-gpgpu_concurrent_kernel_sm                    0 # Support concurrent kernels on a SM (default = disabled)
-gpgpu_perfect_inst_const_cache                    1 # perfect inst and const cache mode, so all inst and const hits in the cache(default = disabled)
-gpgpu_inst_fetch_throughput                    4 # the number of fetched intruction per warp each cycle
-gpgpu_reg_file_port_throughput                    2 # the number ports of the register file
-specialized_unit_1         0,4,4,4,4,BRA # specialized unit config {<enabled>,<num_units>:<latency>:<initiation>,<ID_OC_SPEC>:<OC_EX_SPEC>,<NAME>}
-specialized_unit_2         0,4,4,4,4,BRA # specialized unit config {<enabled>,<num_units>:<latency>:<initiation>,<ID_OC_SPEC>:<OC_EX_SPEC>,<NAME>}
-specialized_unit_3         0,4,4,4,4,BRA # specialized unit config {<enabled>,<num_units>:<latency>:<initiation>,<ID_OC_SPEC>:<OC_EX_SPEC>,<NAME>}
-specialized_unit_4         0,4,4,4,4,BRA # specialized unit config {<enabled>,<num_units>:<latency>:<initiation>,<ID_OC_SPEC>:<OC_EX_SPEC>,<NAME>}
-specialized_unit_5         0,4,4,4,4,BRA # specialized unit config {<enabled>,<num_units>:<latency>:<initiation>,<ID_OC_SPEC>:<OC_EX_SPEC>,<NAME>}
-specialized_unit_6         0,4,4,4,4,BRA # specialized unit config {<enabled>,<num_units>:<latency>:<initiation>,<ID_OC_SPEC>:<OC_EX_SPEC>,<NAME>}
-specialized_unit_7         0,4,4,4,4,BRA # specialized unit config {<enabled>,<num_units>:<latency>:<initiation>,<ID_OC_SPEC>:<OC_EX_SPEC>,<NAME>}
-specialized_unit_8         0,4,4,4,4,BRA # specialized unit config {<enabled>,<num_units>:<latency>:<initiation>,<ID_OC_SPEC>:<OC_EX_SPEC>,<NAME>}
-gpgpu_perf_sim_memcpy                    1 # Fill the L2 cache on memcpy
-gpgpu_simple_dram_model                    0 # simple_dram_model with fixed latency and BW
-gpgpu_dram_scheduler                    1 # 0 = fifo, 1 = FR-FCFS (defaul)
-gpgpu_dram_partition_queues          64:64:64:64 # i2$:$2d:d2$:$2i
-l2_ideal                               0 # Use a ideal L2 cache that always hit
-gpgpu_cache:dl2     S:32:128:24,L:B:m:L:P,A:192:4,32:0,32 # unified banked L2 data cache config  {<nsets>:<bsize>:<assoc>,<rep>:<wr>:<alloc>:<wr_alloc>,<mshr>:<N>:<merge>,<mq>}
-gpgpu_cache:dl2_texture_only                    0 # L2 cache used for texture only
-gpgpu_n_mem                           32 # number of memory modules (e.g. memory controllers) in gpu
-gpgpu_n_sub_partition_per_mchannel                    2 # number of memory subpartition in each memory module
-gpgpu_n_mem_per_ctrlr                    1 # number of memory chips per memory controller
-gpgpu_memlatency_stat                   14 # track and display latency statistics 0x2 enables MC, 0x4 enables queue logs
-gpgpu_frfcfs_dram_sched_queue_size                   64 # 0 = unlimited (default); # entries per chip
-gpgpu_dram_return_queue_size                  192 # 0 = unlimited (default); # entries per chip
-gpgpu_dram_buswidth                   16 # default = 4 bytes (8 bytes per cycle at DDR)
-gpgpu_dram_burst_length                    2 # Burst length of each DRAM request (default = 4 data bus cycle)
-dram_data_command_freq_ratio                    2 # Frequency ratio between DRAM data bus and command bus (default = 2 times, i.e. DDR)
-gpgpu_dram_timing_opt nbk=16:CCD=1:RRD=4:RCD=14:RAS=33:RP=14:RC=47: CL=14:WL=2:CDLR=3:WR=12:nbkgrp=4:CCDL=2:RTPL=4 # DRAM timing parameters = {nbk:tCCD:tRRD:tRCD:tRAS:tRP:tRC:CL:WL:tCDLR:tWR:nbkgrp:tCCDL:tRTPL}
-gpgpu_l2_rop_latency                  160 # ROP queue latency (default 85)
-dram_latency                         100 # DRAM latency (default 30)
-dram_dual_bus_interface                    1 # dual_bus_interface (default = 0) 
-dram_bnk_indexing_policy                    0 # dram_bnk_indexing_policy (0 = normal indexing, 1 = Xoring with the higher bits) (Default = 0)
-dram_bnkgrp_indexing_policy                    1 # dram_bnkgrp_indexing_policy (0 = take higher bits, 1 = take lower bits) (Default = 0)
-dram_seperate_write_queue_enable                    0 # Seperate_Write_Queue_Enable
-dram_write_queue_size             32:28:16 # Write_Queue_Size
-dram_elimnate_rw_turnaround                    0 # elimnate_rw_turnaround i.e set tWTR and tRTW = 0
-icnt_flit_size                        40 # icnt_flit_size
-gpgpu_mem_addr_mapping dramid@8;00000000.00000000.00000000.00000000.0000RRRR.RRRRRRRR.RBBBCCCB.CCCSSSSS # mapping memory address to dram model {dramid@<start bit>;<memory address map>}
-gpgpu_mem_addr_test                    0 # run sweep test to check address mapping for aliased address
-gpgpu_mem_address_mask                    1 # 0 = old addressing mask, 1 = new addressing mask, 2 = new add. mask + flipped bank sel and chip sel bits
-gpgpu_memory_partition_indexing                    2 # 0 = no indexing, 1 = bitwise xoring, 2 = IPoly, 3 = custom indexing
-gpuwattch_xml_file         gpuwattch.xml # GPUWattch XML file
-power_simulation_enabled                    0 # Turn on power simulator (1=On, 0=Off)
-power_per_cycle_dump                    0 # Dump detailed power output each cycle
-power_trace_enabled                    0 # produce a file for the power trace (1=On, 0=Off)
-power_trace_zlevel                     6 # Compression level of the power trace output log (0=no comp, 9=highest)
-steady_power_levels_enabled                    0 # produce a file for the steady power levels (1=On, 0=Off)
-steady_state_definition                  8:4 # allowed deviation:number of samples
-gpgpu_max_cycle                        0 # terminates gpu simulation early (0 = no limit)
-gpgpu_max_insn                         0 # terminates gpu simulation early (0 = no limit)
-gpgpu_max_cta                          0 # terminates gpu simulation early (0 = no limit)
-gpgpu_max_completed_cta                    0 # terminates gpu simulation early (0 = no limit)
-gpgpu_runtime_stat                   500 # display runtime statistics such as dram utilization {<freq>:<flag>}
-liveness_message_freq                    1 # Minimum number of seconds between simulation liveness messages (0 = always print)
-gpgpu_compute_capability_major                    7 # Major compute capability version number
-gpgpu_compute_capability_minor                    0 # Minor compute capability version number
-gpgpu_flush_l1_cache                    1 # Flush L1 cache at the end of each kernel call
-gpgpu_flush_l2_cache                    0 # Flush L2 cache at the end of each kernel call
-gpgpu_deadlock_detect                    1 # Stop the simulation at deadlock (1=on (default), 0=off)
-gpgpu_ptx_instruction_classification                    0 # if enabled will classify ptx instruction types per kernel (Max 255 kernels now)
-gpgpu_ptx_sim_mode                     0 # Select between Performance (default) or Functional simulation (1)
-gpgpu_clock_domains 1200.0:1200.0:1200.0:1000.0 # Clock Domain Frequencies in MhZ {<Core Clock>:<ICNT Clock>:<L2 Clock>:<DRAM Clock>}
-gpgpu_max_concurrent_kernel                    8 # maximum kernels that can run concurrently on GPU
-gpgpu_cflog_interval                    0 # Interval between each snapshot in control flow logger
-visualizer_enabled                     0 # Turn on visualizer output (1=On, 0=Off)
-visualizer_outputfile                 NULL # Specifies the output log file for visualizer
-visualizer_zlevel                      6 # Compression level of the visualizer output log (0=no comp, 9=highest)
-gpgpu_stack_size_limit                 1024 # GPU thread stack size
-gpgpu_heap_size_limit              8388608 # GPU malloc heap size08b63c0fb24f73c3f89507a55ce2bfcd  /home/akamath/Documents/gpgpu-sim_hammerblade/precompiled_bin/sgemm
Extracting PTX file and ptxas options    1: sgemm.1.sm_52.ptx -arch=sm_52
 
-gpgpu_runtime_sync_depth_limit                    2 # GPU device runtime synchronize depth
-gpgpu_runtime_pending_launch_count_limit                 2048 # GPU device runtime pending launch count
-trace_enabled                          0 # Turn on traces
-trace_components                    none # comma seperated list of traces to enable. Complete list found in trace_streams.tup. Default none
-trace_sampling_core                    0 # The core which is printed using CORE_DPRINTF. Default 0
-trace_sampling_memory_partition                   -1 # The memory partition which is printed using MEMPART_DPRINTF. Default -1 (i.e. all)
-enable_ptx_file_line_stats                    1 # Turn on PTX source line statistic profiling. (1 = On)
-ptx_line_stats_filename gpgpu_inst_stats.txt # Output file for PTX source line statistics.
-gpgpu_kernel_launch_latency                 5000 # Kernel launch latency in cycles. Default: 0
-gpgpu_cdp_enabled                      0 # Turn on CDP
-gpgpu_TB_launch_latency                    0 # thread block launch latency in cycles. Default: 0
DRAM Timing Options:
nbk                                    16 # number of banks
CCD                                     1 # column to column delay
RRD                                     4 # minimal delay between activation of rows in different banks
RCD                                    14 # row to column delay
RAS                                    33 # time needed to activate row
RP                                     14 # time needed to precharge (deactivate) row
RC                                     47 # row cycle time
CDLR                                    3 # switching from write to read (changes tWTR)
WR                                     12 # last data-in to row precharge
CL                                     14 # CAS latency
WL                                      2 # Write latency
nbkgrp                                  4 # number of bank groups
CCDL                                    2 # column to column delay between accesses to different bank groups
RTPL                                    4 # read to precharge delay between accesses to different bank groups
Total number of memory sub partition = 64
addr_dec_mask[CHIP]  = 0000000000001f00 	high:13 low:8
addr_dec_mask[BK]    = 00000000000e2000 	high:20 low:13
addr_dec_mask[ROW]   = 00000001fff00000 	high:33 low:20
addr_dec_mask[COL]   = 000000000001c0ff 	high:17 low:0
addr_dec_mask[BURST] = 000000000000001f 	high:5 low:0
sub_partition_id_mask = 0000000000002000
GPGPU-Sim uArch: clock freqs: 1200000000.000000:1200000000.000000:1200000000.000000:1000000000.000000
GPGPU-Sim uArch: clock periods: 0.00000000083333333333:0.00000000083333333333:0.00000000083333333333:0.00000000100000000000
*** Initializing Memory Statistics ***
GPGPU-Sim uArch: performance model initialization complete.
self exe links to: /home/akamath/Documents/gpgpu-sim_hammerblade/precompiled_bin/sgemm
self exe links to: /home/akamath/Documents/gpgpu-sim_hammerblade/precompiled_bin/sgemm
11.0
GPGPU-Sim PTX: __cudaRegisterFatBinary, fat_cubin_handle = 1, filename=default
self exe links to: /home/akamath/Documents/gpgpu-sim_hammerblade/precompiled_bin/sgemm
Running md5sum using "md5sum /home/akamath/Documents/gpgpu-sim_hammerblade/precompiled_bin/sgemm "
self exe links to: /home/akamath/Documents/gpgpu-sim_hammerblade/precompiled_bin/sgemm
Extracting specific PTX file named sgemm.1.sm_52.ptx 
GPGPU-Sim PTX: __cudaRegisterFunction _ZN7cutlass6KernelINS_4gemm6kernel4GemmINS1_11threadblock12MmaPipelinedINS1_9GemmShapeILi128ELi128ELi8EEENS_9transform11threadblock22PredicatedTileIteratorINS_11MatrixShapeILi128ELi8EEEfNS_6layout8RowMajorELi1ENS8_30PitchLinearStripminedThreadMapINS_16PitchLinearShapeILi8ELi128EEELi256ELi1EEELi1EEENS9_19RegularTileIteratorISC_fNSD_11ColumnMajorELi1ENS8_33TransposePitchLinearThreadMapSimtISI_EELi4EEENSA_INSB_ILi8ELi128EEEfSE_Li0ENSF_INSG_ILi128ELi8EEELi256ELi1EEELi1EEENSK_ISP_fSE_Li0ESR_Li4EEEfSE_NS4_9MmaPolicyINS1_4warp7MmaSimtINS6_ILi32ELi64ELi8EEEfSL_fSE_fSE_NSV_13MmaSimtPolicyINSB_ILi4ELi8EEENSD_19RowMajorInterleavedILi2EEENS6_ILi4ELi4ELi1EEEEELi1ELNS_16ComplexTransformE0ELS14_0EbEENSB_ILi4ELi0EEENSB_ILi0ELi0EEELi1EEENS_21NumericArrayConverterIffLi4ELNS_15FloatRoundStyleE2EEES1B_bEENS_8epilogue11threadblock8EpilogueIS7_S15_Li1ENS1E_22PredicatedTileIteratorINS1E_26OutputTileOptimalThreadMapINS1E_15OutputTileShapeILi128ELi1ELi4ELi4ELi1EEENS1I_ILi1ELi4ELi2ELi1ELi8EEELi256ELi1ELi32EEEfLb0EEENS1D_4warp20FragmentIteratorSimtISX_NS1_6thread3MmaINS6_ILi8ELi8ELi1EEEfSL_fSE_fSE_NS_4arch13OpMultiplyAddEbEESE_S13_EENS1N_16TileIteratorSimtISX_S1U_fSE_S13_EENS1E_18SharedLoadIteratorINS1L_18CompactedThreadMapEfLi4EEENS1D_6thread17LinearCombinationIfLi1EffLNS21_9ScaleType4KindE0ELS1A_2EEENSB_ILi0ELi17EEELi1ELi1EEENS4_30GemmIdentityThreadblockSwizzleILi1EEELb0EEEEEvNT_6ParamsE : hostFun 0x0x556f3bbd3958, fat_cubin_handle = 1
GPGPU-Sim PTX: Parsing sgemm.1.sm_52.ptx
GPGPU-Sim PTX: allocating shared region for "_ZN7cutlass17SharedStorageBaseE" from 0x0 to 0x0 (shared memory space)
GPGPU-Sim PTX: Warning -- ignoring pragma 'nounroll'
GPGPU-Sim PTX: instruction assembly for function '_ZN7cutlass6KernelINS_4gemm6kernel4GemmINS1_11threadblock12MmaPipelinedINS1_9GemmShapeILi128ELi128ELi8EEENS_9transform11threadblock22PredicatedTileIteratorINS_11MatrixShapeILi128ELi8EEEfNS_6layout8RowMajorELi1ENS8_30PitchLinearStripminedThreadMapINS_16PitchLinearShapeILi8ELi128EEELi256ELi1EEELi1EEENS9_19RegularTileIteratorISC_fNSD_11ColumnMajorELi1ENS8_33TransposePitchLinearThreadMapSimtISI_EELi4EEENSA_INSB_ILi8ELi128EEEfSE_Li0ENSF_INSG_ILi128ELi8EEELi256ELi1EEELi1EEENSK_ISP_fSE_Li0ESR_Li4EEEfSE_NS4_9MmaPolicyINS1_4warp7MmaSimtINS6_ILi32ELi64ELi8EEEfSL_fSE_fSE_NSV_13MmaSimtPolicyINSB_ILi4ELi8EEENSD_19RowMajorInterleavedILi2EEENS6_ILi4ELi4ELi1EEEEELi1ELNS_16ComplexTransformE0ELS14_0EbEENSB_ILi4ELi0EEENSB_ILi0ELi0EEELi1EEENS_21NumericArrayConverterIffLi4ELNS_15FloatRoundStyleE2EEES1B_bEENS_8epilogue11threadblock8EpilogueIS7_S15_Li1ENS1E_22PredicatedTileIteratorINS1E_26OutputTileOptimalThreadMapINS1E_15OutputTileShapeILi128ELi1ELi4ELi4ELi1EEENS1I_ILi1ELi4ELi2ELi1ELi8EEELi256ELi1ELi32EEEfLb0EEENS1D_4warp20FragmentIteratorSimtISX_NS1_6thread3MmaINS6_ILi8ELi8ELi1EEEfSL_fSE_fSE_NS_4arch13OpMultiplyAddEbEESE_S13_EENS1N_16TileIteratorSimtISX_S1U_fSE_S13_EENS1E_18SharedLoadIteratorINS1L_18CompactedThreadMapEfLi4EEENS1D_6thread17LinearCombinationIfLi1EffLNS21_9ScaleType4KindE0ELS1A_2EEENSB_ILi0ELi17EEELi1ELi1EEENS4_30GemmIdentityThreadblockSwizzleILi1EEELb0EEEEEvNT_6ParamsE'...   done.
GPGPU-Sim PTX: finished parsing EMBEDDED .ptx file sgemm.1.sm_52.ptx
GPGPU-Sim PTX: loading globals with explicit initializers... 
GPGPU-Sim PTX: finished loading globals (0 bytes total).
GPGPU-Sim PTX: loading constants with explicit initializers...  done.
GPGPU-Sim PTX: Loading PTXInfo from sgemm.1.sm_52.ptx
GPGPU-Sim PTX: Kernel '_ZN7cutlass6KernelINS_4gemm6kernel4GemmINS1_11threadblock12MmaPipelinedINS1_9GemmShapeILi128ELi128ELi8EEENS_9transform11threadblock22PredicatedTileIteratorINS_11MatrixShapeILi128ELi8EEEfNS_6layout8RowMajorELi1ENS8_30PitchLinearStripminedThreadMapINS_16PitchLinearShapeILi8ELi128EEELi256ELi1EEELi1EEENS9_19RegularTileIteratorISC_fNSD_11ColumnMajorELi1ENS8_33TransposePitchLinearThreadMapSimtISI_EELi4EEENSA_INSB_ILi8ELi128EEEfSE_Li0ENSF_INSG_ILi128ELi8EEELi256ELi1EEELi1EEENSK_ISP_fSE_Li0ESR_Li4EEEfSE_NS4_9MmaPolicyINS1_4warp7MmaSimtINS6_ILi32ELi64ELi8EEEfSL_fSE_fSE_NSV_13MmaSimtPolicyINSB_ILi4ELi8EEENSD_19RowMajorInterleavedILi2EEENS6_ILi4ELi4ELi1EEEEELi1ELNS_16ComplexTransformE0ELS14_0EbEENSB_ILi4ELi0EEENSB_ILi0ELi0EEELi1EEENS_21NumericArrayConverterIffLi4ELNS_15FloatRoundStyleE2EEES1B_bEENS_8epilogue11threadblock8EpilogueIS7_S15_Li1ENS1E_22PredicatedTileIteratorINS1E_26OutputTileOptimalThreadMapINS1E_15OutputTileShapeILi128ELi1ELi4ELi4ELi1EEENS1I_ILi1ELi4ELi2ELi1ELi8EEELi256ELi1ELi32EEEfLb0EEENS1D_4warp20FragmentIteratorSimtISX_NS1_6thread3MmaINS6_ILi8ELi8ELi1EEEfSL_fSE_fSE_NS_4arch13OpMultiplyAddEbEESE_S13_EENS1N_16TileIteratorSimtISX_S1U_fSE_S13_EENS1E_18SharedLoadIteratorINS1L_18CompactedThreadMapEfLi4EEENS1D_6thread17LinearCombinationIfLi1EffLNS21_9ScaleType4KindE0ELS1A_2EEENSB_ILi0ELi17EEELi1ELi1EEENS4_30GemmIdentityThreadblockSwizzleILi1EEELb0EEEEEvNT_6ParamsE' : regs=168, lmem=0, smem=0, cmem=648
Square matrix size: 512
GPGPU-Sim PTX: Setting up arguments for 328 bytes starting at 0x7fff7deb7070..

GPGPU-Sim PTX: cudaLaunch for 0x0x556f3bbd3958 (mode=performance simulation) on stream 0
GPGPU-Sim PTX: finding reconvergence points for '_ZN7cutlass6KernelINS_4gemm6kernel4GemmINS1_11threadblock12MmaPipelinedINS1_9GemmShapeILi128ELi128ELi8EEENS_9transform11threadblock22PredicatedTileIteratorINS_11MatrixShapeILi128ELi8EEEfNS_6layout8RowMajorELi1ENS8_30PitchLinearStripminedThreadMapINS_16PitchLinearShapeILi8ELi128EEELi256ELi1EEELi1EEENS9_19RegularTileIteratorISC_fNSD_11ColumnMajorELi1ENS8_33TransposePitchLinearThreadMapSimtISI_EELi4EEENSA_INSB_ILi8ELi128EEEfSE_Li0ENSF_INSG_ILi128ELi8EEELi256ELi1EEELi1EEENSK_ISP_fSE_Li0ESR_Li4EEEfSE_NS4_9MmaPolicyINS1_4warp7MmaSimtINS6_ILi32ELi64ELi8EEEfSL_fSE_fSE_NSV_13MmaSimtPolicyINSB_ILi4ELi8EEENSD_19RowMajorInterleavedILi2EEENS6_ILi4ELi4ELi1EEEEELi1ELNS_16ComplexTransformE0ELS14_0EbEENSB_ILi4ELi0EEENSB_ILi0ELi0EEELi1EEENS_21NumericArrayConverterIffLi4ELNS_15FloatRoundStyleE2EEES1B_bEENS_8epilogue11threadblock8EpilogueIS7_S15_Li1ENS1E_22PredicatedTileIteratorINS1E_26OutputTileOptimalThreadMapINS1E_15OutputTileShapeILi128ELi1ELi4ELi4ELi1EEENS1I_ILi1ELi4ELi2ELi1ELi8EEELi256ELi1ELi32EEEfLb0EEENS1D_4warp20FragmentIteratorSimtISX_NS1_6thread3MmaINS6_ILi8ELi8ELi1EEEfSL_fSE_fSE_NS_4arch13OpMultiplyAddEbEESE_S13_EENS1N_16TileIteratorSimtISX_S1U_fSE_S13_EENS1E_18SharedLoadIteratorINS1L_18CompactedThreadMapEfLi4EEENS1D_6thread17LinearCombinationIfLi1EffLNS21_9ScaleType4KindE0ELS1A_2EEENSB_ILi0ELi17EEELi1ELi1EEENS4_30GemmIdentityThreadblockSwizzleILi1EEELb0EEEEEvNT_6ParamsE'...
GPGPU-Sim PTX: Finding dominators for '_ZN7cutlass6KernelINS_4gemm6kernel4GemmINS1_11threadblock12MmaPipelinedINS1_9GemmShapeILi128ELi128ELi8EEENS_9transform11threadblock22PredicatedTileIteratorINS_11MatrixShapeILi128ELi8EEEfNS_6layout8RowMajorELi1ENS8_30PitchLinearStripminedThreadMapINS_16PitchLinearShapeILi8ELi128EEELi256ELi1EEELi1EEENS9_19RegularTileIteratorISC_fNSD_11ColumnMajorELi1ENS8_33TransposePitchLinearThreadMapSimtISI_EELi4EEENSA_INSB_ILi8ELi128EEEfSE_Li0ENSF_INSG_ILi128ELi8EEELi256ELi1EEELi1EEENSK_ISP_fSE_Li0ESR_Li4EEEfSE_NS4_9MmaPolicyINS1_4warp7MmaSimtINS6_ILi32ELi64ELi8EEEfSL_fSE_fSE_NSV_13MmaSimtPolicyINSB_ILi4ELi8EEENSD_19RowMajorInterleavedILi2EEENS6_ILi4ELi4ELi1EEEEELi1ELNS_16ComplexTransformE0ELS14_0EbEENSB_ILi4ELi0EEENSB_ILi0ELi0EEELi1EEENS_21NumericArrayConverterIffLi4ELNS_15FloatRoundStyleE2EEES1B_bEENS_8epilogue11threadblock8EpilogueIS7_S15_Li1ENS1E_22PredicatedTileIteratorINS1E_26OutputTileOptimalThreadMapINS1E_15OutputTileShapeILi128ELi1ELi4ELi4ELi1EEENS1I_ILi1ELi4ELi2ELi1ELi8EEELi256ELi1ELi32EEEfLb0EEENS1D_4warp20FragmentIteratorSimtISX_NS1_6thread3MmaINS6_ILi8ELi8ELi1EEEfSL_fSE_fSE_NS_4arch13OpMultiplyAddEbEESE_S13_EENS1N_16TileIteratorSimtISX_S1U_fSE_S13_EENS1E_18SharedLoadIteratorINS1L_18CompactedThreadMapEfLi4EEENS1D_6thread17LinearCombinationIfLi1EffLNS21_9ScaleType4KindE0ELS1A_2EEENSB_ILi0ELi17EEELi1ELi1EEENS4_30GemmIdentityThreadblockSwizzleILi1EEELb0EEEEEvNT_6ParamsE'...
GPGPU-Sim PTX: Finding immediate dominators for '_ZN7cutlass6KernelINS_4gemm6kernel4GemmINS1_11threadblock12MmaPipelinedINS1_9GemmShapeILi128ELi128ELi8EEENS_9transform11threadblock22PredicatedTileIteratorINS_11MatrixShapeILi128ELi8EEEfNS_6layout8RowMajorELi1ENS8_30PitchLinearStripminedThreadMapINS_16PitchLinearShapeILi8ELi128EEELi256ELi1EEELi1EEENS9_19RegularTileIteratorISC_fNSD_11ColumnMajorELi1ENS8_33TransposePitchLinearThreadMapSimtISI_EELi4EEENSA_INSB_ILi8ELi128EEEfSE_Li0ENSF_INSG_ILi128ELi8EEELi256ELi1EEELi1EEENSK_ISP_fSE_Li0ESR_Li4EEEfSE_NS4_9MmaPolicyINS1_4warp7MmaSimtINS6_ILi32ELi64ELi8EEEfSL_fSE_fSE_NSV_13MmaSimtPolicyINSB_ILi4ELi8EEENSD_19RowMajorInterleavedILi2EEENS6_ILi4ELi4ELi1EEEEELi1ELNS_16ComplexTransformE0ELS14_0EbEENSB_ILi4ELi0EEENSB_ILi0ELi0EEELi1EEENS_21NumericArrayConverterIffLi4ELNS_15FloatRoundStyleE2EEES1B_bEENS_8epilogue11threadblock8EpilogueIS7_S15_Li1ENS1E_22PredicatedTileIteratorINS1E_26OutputTileOptimalThreadMapINS1E_15OutputTileShapeILi128ELi1ELi4ELi4ELi1EEENS1I_ILi1ELi4ELi2ELi1ELi8EEELi256ELi1ELi32EEEfLb0EEENS1D_4warp20FragmentIteratorSimtISX_NS1_6thread3MmaINS6_ILi8ELi8ELi1EEEfSL_fSE_fSE_NS_4arch13OpMultiplyAddEbEESE_S13_EENS1N_16TileIteratorSimtISX_S1U_fSE_S13_EENS1E_18SharedLoadIteratorINS1L_18CompactedThreadMapEfLi4EEENS1D_6thread17LinearCombinationIfLi1EffLNS21_9ScaleType4KindE0ELS1A_2EEENSB_ILi0ELi17EEELi1ELi1EEENS4_30GemmIdentityThreadblockSwizzleILi1EEELb0EEEEEvNT_6ParamsE'...
GPGPU-Sim PTX: Finding postdominators for '_ZN7cutlass6KernelINS_4gemm6kernel4GemmINS1_11threadblock12MmaPipelinedINS1_9GemmShapeILi128ELi128ELi8EEENS_9transform11threadblock22PredicatedTileIteratorINS_11MatrixShapeILi128ELi8EEEfNS_6layout8RowMajorELi1ENS8_30PitchLinearStripminedThreadMapINS_16PitchLinearShapeILi8ELi128EEELi256ELi1EEELi1EEENS9_19RegularTileIteratorISC_fNSD_11ColumnMajorELi1ENS8_33TransposePitchLinearThreadMapSimtISI_EELi4EEENSA_INSB_ILi8ELi128EEEfSE_Li0ENSF_INSG_ILi128ELi8EEELi256ELi1EEELi1EEENSK_ISP_fSE_Li0ESR_Li4EEEfSE_NS4_9MmaPolicyINS1_4warp7MmaSimtINS6_ILi32ELi64ELi8EEEfSL_fSE_fSE_NSV_13MmaSimtPolicyINSB_ILi4ELi8EEENSD_19RowMajorInterleavedILi2EEENS6_ILi4ELi4ELi1EEEEELi1ELNS_16ComplexTransformE0ELS14_0EbEENSB_ILi4ELi0EEENSB_ILi0ELi0EEELi1EEENS_21NumericArrayConverterIffLi4ELNS_15FloatRoundStyleE2EEES1B_bEENS_8epilogue11threadblock8EpilogueIS7_S15_Li1ENS1E_22PredicatedTileIteratorINS1E_26OutputTileOptimalThreadMapINS1E_15OutputTileShapeILi128ELi1ELi4ELi4ELi1EEENS1I_ILi1ELi4ELi2ELi1ELi8EEELi256ELi1ELi32EEEfLb0EEENS1D_4warp20FragmentIteratorSimtISX_NS1_6thread3MmaINS6_ILi8ELi8ELi1EEEfSL_fSE_fSE_NS_4arch13OpMultiplyAddEbEESE_S13_EENS1N_16TileIteratorSimtISX_S1U_fSE_S13_EENS1E_18SharedLoadIteratorINS1L_18CompactedThreadMapEfLi4EEENS1D_6thread17LinearCombinationIfLi1EffLNS21_9ScaleType4KindE0ELS1A_2EEENSB_ILi0ELi17EEELi1ELi1EEENS4_30GemmIdentityThreadblockSwizzleILi1EEELb0EEEEEvNT_6ParamsE'...
GPGPU-Sim PTX: Finding immediate postdominators for '_ZN7cutlass6KernelINS_4gemm6kernel4GemmINS1_11threadblock12MmaPipelinedINS1_9GemmShapeILi128ELi128ELi8EEENS_9transform11threadblock22PredicatedTileIteratorINS_11MatrixShapeILi128ELi8EEEfNS_6layout8RowMajorELi1ENS8_30PitchLinearStripminedThreadMapINS_16PitchLinearShapeILi8ELi128EEELi256ELi1EEELi1EEENS9_19RegularTileIteratorISC_fNSD_11ColumnMajorELi1ENS8_33TransposePitchLinearThreadMapSimtISI_EELi4EEENSA_INSB_ILi8ELi128EEEfSE_Li0ENSF_INSG_ILi128ELi8EEELi256ELi1EEELi1EEENSK_ISP_fSE_Li0ESR_Li4EEEfSE_NS4_9MmaPolicyINS1_4warp7MmaSimtINS6_ILi32ELi64ELi8EEEfSL_fSE_fSE_NSV_13MmaSimtPolicyINSB_ILi4ELi8EEENSD_19RowMajorInterleavedILi2EEENS6_ILi4ELi4ELi1EEEEELi1ELNS_16ComplexTransformE0ELS14_0EbEENSB_ILi4ELi0EEENSB_ILi0ELi0EEELi1EEENS_21NumericArrayConverterIffLi4ELNS_15FloatRoundStyleE2EEES1B_bEENS_8epilogue11threadblock8EpilogueIS7_S15_Li1ENS1E_22PredicatedTileIteratorINS1E_26OutputTileOptimalThreadMapINS1E_15OutputTileShapeILi128ELi1ELi4ELi4ELi1EEENS1I_ILi1ELi4ELi2ELi1ELi8EEELi256ELi1ELi32EEEfLb0EEENS1D_4warp20FragmentIteratorSimtISX_NS1_6thread3MmaINS6_ILi8ELi8ELi1EEEfSL_fSE_fSE_NS_4arch13OpMultiplyAddEbEESE_S13_EENS1N_16TileIteratorSimtISX_S1U_fSE_S13_EENS1E_18SharedLoadIteratorINS1L_18CompactedThreadMapEfLi4EEENS1D_6thread17LinearCombinationIfLi1EffLNS21_9ScaleType4KindE0ELS1A_2EEENSB_ILi0ELi17EEELi1ELi1EEENS4_30GemmIdentityThreadblockSwizzleILi1EEELb0EEEEEvNT_6ParamsE'...
GPGPU-Sim PTX: pre-decoding instructions for '_ZN7cutlass6KernelINS_4gemm6kernel4GemmINS1_11threadblock12MmaPipelinedINS1_9GemmShapeILi128ELi128ELi8EEENS_9transform11threadblock22PredicatedTileIteratorINS_11MatrixShapeILi128ELi8EEEfNS_6layout8RowMajorELi1ENS8_30PitchLinearStripminedThreadMapINS_16PitchLinearShapeILi8ELi128EEELi256ELi1EEELi1EEENS9_19RegularTileIteratorISC_fNSD_11ColumnMajorELi1ENS8_33TransposePitchLinearThreadMapSimtISI_EELi4EEENSA_INSB_ILi8ELi128EEEfSE_Li0ENSF_INSG_ILi128ELi8EEELi256ELi1EEELi1EEENSK_ISP_fSE_Li0ESR_Li4EEEfSE_NS4_9MmaPolicyINS1_4warp7MmaSimtINS6_ILi32ELi64ELi8EEEfSL_fSE_fSE_NSV_13MmaSimtPolicyINSB_ILi4ELi8EEENSD_19RowMajorInterleavedILi2EEENS6_ILi4ELi4ELi1EEEEELi1ELNS_16ComplexTransformE0ELS14_0EbEENSB_ILi4ELi0EEENSB_ILi0ELi0EEELi1EEENS_21NumericArrayConverterIffLi4ELNS_15FloatRoundStyleE2EEES1B_bEENS_8epilogue11threadblock8EpilogueIS7_S15_Li1ENS1E_22PredicatedTileIteratorINS1E_26OutputTileOptimalThreadMapINS1E_15OutputTileShapeILi128ELi1ELi4ELi4ELi1EEENS1I_ILi1ELi4ELi2ELi1ELi8EEELi256ELi1ELi32EEEfLb0EEENS1D_4warp20FragmentIteratorSimtISX_NS1_6thread3MmaINS6_ILi8ELi8ELi1EEEfSL_fSE_fSE_NS_4arch13OpMultiplyAddEbEESE_S13_EENS1N_16TileIteratorSimtISX_S1U_fSE_S13_EENS1E_18SharedLoadIteratorINS1L_18CompactedThreadMapEfLi4EEENS1D_6thread17LinearCombinationIfLi1EffLNS21_9ScaleType4KindE0ELS1A_2EEENSB_ILi0ELi17EEELi1ELi1EEENS4_30GemmIdentityThreadblockSwizzleILi1EEELb0EEEEEvNT_6ParamsE'...
GPGPU-Sim PTX: reconvergence points for _ZN7cutlass6KernelINS_4gemm6kernel4GemmINS1_11threadblock12MmaPipelinedINS1_9GemmShapeILi128ELi128ELi8EEENS_9transform11threadblock22PredicatedTileIteratorINS_11MatrixShapeILi128ELi8EEEfNS_6layout8RowMajorELi1ENS8_30PitchLinearStripminedThreadMapINS_16PitchLinearShapeILi8ELi128EEELi256ELi1EEELi1EEENS9_19RegularTileIteratorISC_fNSD_11ColumnMajorELi1ENS8_33TransposePitchLinearThreadMapSimtISI_EELi4EEENSA_INSB_ILi8ELi128EEEfSE_Li0ENSF_INSG_ILi128ELi8EEELi256ELi1EEELi1EEENSK_ISP_fSE_Li0ESR_Li4EEEfSE_NS4_9MmaPolicyINS1_4warp7MmaSimtINS6_ILi32ELi64ELi8EEEfSL_fSE_fSE_NSV_13MmaSimtPolicyINSB_ILi4ELi8EEENSD_19RowMajorInterleavedILi2EEENS6_ILi4ELi4ELi1EEEEELi1ELNS_16ComplexTransformE0ELS14_0EbEENSB_ILi4ELi0EEENSB_ILi0ELi0EEELi1EEENS_21NumericArrayConverterIffLi4ELNS_15FloatRoundStyleE2EEES1B_bEENS_8epilogue11threadblock8EpilogueIS7_S15_Li1ENS1E_22PredicatedTileIteratorINS1E_26OutputTileOptimalThreadMapINS1E_15OutputTileShapeILi128ELi1ELi4ELi4ELi1EEENS1I_ILi1ELi4ELi2ELi1ELi8EEELi256ELi1ELi32EEEfLb0EEENS1D_4warp20FragmentIteratorSimtISX_NS1_6thread3MmaINS6_ILi8ELi8ELi1EEEfSL_fSE_fSE_NS_4arch13OpMultiplyAddEbEESE_S13_EENS1N_16TileIteratorSimtISX_S1U_fSE_S13_EENS1E_18SharedLoadIteratorINS1L_18CompactedThreadMapEfLi4EEENS1D_6thread17LinearCombinationIfLi1EffLNS21_9ScaleType4KindE0ELS1A_2EEENSB_ILi0ELi17EEELi1ELi1EEENS4_30GemmIdentityThreadblockSwizzleILi1EEELb0EEEEEvNT_6ParamsE...
GPGPU-Sim PTX:  1 (potential) branch divergence @  PC=0x0b8 (sgemm.1.sm_52.ptx:50) @%p4 bra $L__BB0_14;
GPGPU-Sim PTX:    immediate post dominator      @  PC=0x5630 (sgemm.1.sm_52.ptx:4058) ret;
GPGPU-Sim PTX:  2 (potential) branch divergence @  PC=0x840 (sgemm.1.sm_52.ptx:340) @%p24 bra $L__BB0_7;
GPGPU-Sim PTX:    immediate post dominator      @  PC=0x2088 (sgemm.1.sm_52.ptx:1177) ld.param.u64 %rd306, [_ZN7cutlass6KernelINS_4gemm6kernel4GemmINS1_11threadblock12MmaPipelinedINS1_9GemmShapeILi128ELi128ELi8EEENS_9transform11threadblock22PredicatedTileIteratorINS_11MatrixShapeILi128ELi8EEEfNS_6layout8RowMajorELi1ENS8_30PitchLinearStripminedThreadMapINS_16PitchLinearShapeILi8ELi128EEELi256ELi1EEELi1EEENS9_19RegularTileIteratorISC_fNSD_11ColumnMajorELi1ENS8_33TransposePitchLinearThreadMapSimtISI_EELi4EEENSA_INSB_ILi8ELi128EEEfSE_Li0ENSF_INSG_ILi128ELi8EEELi256ELi1EEELi1EEENSK_ISP_fSE_Li0ESR_Li4EEEfSE_NS4_9MmaPolicyINS1_4warp7MmaSimtINS6_ILi32ELi64ELi8EEEfSL_fSE_fSE_NSV_13MmaSimtPolicyINSB_ILi4ELi8EEENSD_19RowMajorInterleavedILi2EEENS6_ILi4ELi4ELi1EEEEELi1ELNS_16ComplexTransformE0ELS14_0EbEENSB_ILi4ELi0EEENSB_ILi0ELi0EEELi1EEENS_21NumericArrayConverterIffLi4ELNS_15FloatRoundStyleE2EEES1B_bEENS_8epilogue11threadblock8EpilogueIS7_S15_Li1ENS1E_22PredicatedTileIteratorINS1E_26OutputTileOptimalThreadMapINS1E_15OutputTileShapeILi128ELi1ELi4ELi4ELi1EEENS1I_ILi1ELi
GPGPU-Sim PTX:  3 (potential) branch divergence @  PC=0x1d68 (sgemm.1.sm_52.ptx:1069) @%p26 bra $L__BB0_5;
GPGPU-Sim PTX:    immediate post dominator      @  PC=0x1dc0 (sgemm.1.sm_52.ptx:1086) setp.gt.s32 %p27, %r869, 2;
GPGPU-Sim PTX:  4 (potential) branch divergence @  PC=0x1d70 (sgemm.1.sm_52.ptx:1070) bra.uni $L__BB0_4;
GPGPU-Sim PTX:    immediate post dominator      @  PC=0x1da0 (sgemm.1.sm_52.ptx:1080) add.s32 %r878, %r897, -4752;
GPGPU-Sim PTX:  5 (potential) branch divergence @  PC=0x1d98 (sgemm.1.sm_52.ptx:1077) bra.uni $L__BB0_6;
GPGPU-Sim PTX:    immediate post dominator      @  PC=0x1dc0 (sgemm.1.sm_52.ptx:1086) setp.gt.s32 %p27, %r869, 2;
GPGPU-Sim PTX:  6 (potential) branch divergence @  PC=0x2080 (sgemm.1.sm_52.ptx:1174) @%p28 bra $L__BB0_3;
GPGPU-Sim PTX:    immediate post dominator      @  PC=0x2088 (sgemm.1.sm_52.ptx:1177) ld.param.u64 %rd306, [_ZN7cutlass6KernelINS_4gemm6kernel4GemmINS1_11threadblock12MmaPipelinedINS1_9GemmShapeILi128ELi128ELi8EEENS_9transform11threadblock22PredicatedTileIteratorINS_11MatrixShapeILi128ELi8EEEfNS_6layout8RowMajorELi1ENS8_30PitchLinearStripminedThreadMapINS_16PitchLinearShapeILi8ELi128EEELi256ELi1EEELi1EEENS9_19RegularTileIteratorISC_fNSD_11ColumnMajorELi1ENS8_33TransposePitchLinearThreadMapSimtISI_EELi4EEENSA_INSB_ILi8ELi128EEEfSE_Li0ENSF_INSG_ILi128ELi8EEELi256ELi1EEELi1EEENSK_ISP_fSE_Li0ESR_Li4EEEfSE_NS4_9MmaPolicyINS1_4warp7MmaSimtINS6_ILi32ELi64ELi8EEEfSL_fSE_fSE_NSV_13MmaSimtPolicyINSB_ILi4ELi8EEENSD_19RowMajorInterleavedILi2EEENS6_ILi4ELi4ELi1EEEEELi1ELNS_16ComplexTransformE0ELS14_0EbEENSB_ILi4ELi0EEENSB_ILi0ELi0EEELi1EEENS_21NumericArrayConverterIffLi4ELNS_15FloatRoundStyleE2EEES1B_bEENS_8epilogue11threadblock8EpilogueIS7_S15_Li1ENS1E_22PredicatedTileIteratorINS1E_26OutputTileOptimalThreadMapINS1E_15OutputTileShapeILi128ELi1ELi4ELi4ELi1EEENS1I_ILi1ELi
GPGPU-Sim PTX:  7 (potential) branch divergence @  PC=0x2098 (sgemm.1.sm_52.ptx:1179) @%p29 bra $L__BB0_9;
GPGPU-Sim PTX:    immediate post dominator      @  PC=0x20b8 (sgemm.1.sm_52.ptx:1186) ld.param.u64 %rd308, [_ZN7cutlass6KernelINS_4gemm6kernel4GemmINS1_11threadblock12MmaPipelinedINS1_9GemmShapeILi128ELi128ELi8EEENS_9transform11threadblock22PredicatedTileIteratorINS_11MatrixShapeILi128ELi8EEEfNS_6layout8RowMajorELi1ENS8_30PitchLinearStripminedThreadMapINS_16PitchLinearShapeILi8ELi128EEELi256ELi1EEELi1EEENS9_19RegularTileIteratorISC_fNSD_11ColumnMajorELi1ENS8_33TransposePitchLinearThreadMapSimtISI_EELi4EEENSA_INSB_ILi8ELi128EEEfSE_Li0ENSF_INSG_ILi128ELi8EEELi256ELi1EEELi1EEENSK_ISP_fSE_Li0ESR_Li4EEEfSE_NS4_9MmaPolicyINS1_4warp7MmaSimtINS6_ILi32ELi64ELi8EEEfSL_fSE_fSE_NSV_13MmaSimtPolicyINSB_ILi4ELi8EEENSD_19RowMajorInterleavedILi2EEENS6_ILi4ELi4ELi1EEEEELi1ELNS_16ComplexTransformE0ELS14_0EbEENSB_ILi4ELi0EEENSB_ILi0ELi0EEELi1EEENS_21NumericArrayConverterIffLi4ELNS_15FloatRoundStyleE2EEES1B_bEENS_8epilogue11threadblock8EpilogueIS7_S15_Li1ENS1E_22PredicatedTileIteratorINS1E_26OutputTileOptimalThreadMapINS1E_15OutputTileShapeILi128ELi1ELi4ELi4ELi1EEENS1I_ILi1ELi
GPGPU-Sim PTX:  8 (potential) branch divergence @  PC=0x20c8 (sgemm.1.sm_52.ptx:1188) @%p30 bra $L__BB0_11;
GPGPU-Sim PTX:    immediate post dominator      @  PC=0x20e8 (sgemm.1.sm_52.ptx:1195) mov.u32 %r868, %tid.x;
GPGPU-Sim PTX:  9 (potential) branch divergence @  PC=0x2840 (sgemm.1.sm_52.ptx:1430) @%p120 bra $L__BB0_13;
GPGPU-Sim PTX:    immediate post dominator      @  PC=0x5630 (sgemm.1.sm_52.ptx:4058) ret;
GPGPU-Sim PTX: 10 (potential) branch divergence @  PC=0x2848 (sgemm.1.sm_52.ptx:1431) bra.uni $L__BB0_12;
GPGPU-Sim PTX:    immediate post dominator      @  PC=0x3708 (sgemm.1.sm_52.ptx:2291) ld.param.u64 %rd320, [_ZN7cutlass6KernelINS_4gemm6kernel4GemmINS1_11threadblock12MmaPipelinedINS1_9GemmShapeILi128ELi128ELi8EEENS_9transform11threadblock22PredicatedTileIteratorINS_11MatrixShapeILi128ELi8EEEfNS_6layout8RowMajorELi1ENS8_30PitchLinearStripminedThreadMapINS_16PitchLinearShapeILi8ELi128EEELi256ELi1EEELi1EEENS9_19RegularTileIteratorISC_fNSD_11ColumnMajorELi1ENS8_33TransposePitchLinearThreadMapSimtISI_EELi4EEENSA_INSB_ILi8ELi128EEEfSE_Li0ENSF_INSG_ILi128ELi8EEELi256ELi1EEELi1EEENSK_ISP_fSE_Li0ESR_Li4EEEfSE_NS4_9MmaPolicyINS1_4warp7MmaSimtINS6_ILi32ELi64ELi8EEEfSL_fSE_fSE_NSV_13MmaSimtPolicyINSB_ILi4ELi8EEENSD_19RowMajorInterleavedILi2EEENS6_ILi4ELi4ELi1EEEEELi1ELNS_16ComplexTransformE0ELS14_0EbEENSB_ILi4ELi0EEENSB_ILi0ELi0EEELi1EEENS_21NumericArrayConverterIffLi4ELNS_15FloatRoundStyleE2EEES1B_bEENS_8epilogue11threadblock8EpilogueIS7_S15_Li1ENS1E_22PredicatedTileIteratorINS1E_26OutputTileOptimalThreadMapINS1E_15OutputTileShapeILi128ELi1ELi4ELi4ELi1EEENS1I_ILi1ELi
GPGPU-Sim PTX: 11 (potential) branch divergence @  PC=0x3700 (sgemm.1.sm_52.ptx:2288) bra.uni $L__BB0_14;
GPGPU-Sim PTX:    immediate post dominator      @  PC=0x5630 (sgemm.1.sm_52.ptx:4058) ret;
GPGPU-Sim PTX: ... end of reconvergence points for _ZN7cutlass6KernelINS_4gemm6kernel4GemmINS1_11threadblock12MmaPipelinedINS1_9GemmShapeILi128ELi128ELi8EEENS_9transform11threadblock22PredicatedTileIteratorINS_11MatrixShapeILi128ELi8EEEfNS_6layout8RowMajorELi1ENS8_30PitchLinearStripminedThreadMapINS_16PitchLinearShapeILi8ELi128EEELi256ELi1EEELi1EEENS9_19RegularTileIteratorISC_fNSD_11ColumnMajorELi1ENS8_33TransposePitchLinearThreadMapSimtISI_EELi4EEENSA_INSB_ILi8ELi128EEEfSE_Li0ENSF_INSG_ILi128ELi8EEELi256ELi1EEELi1EEENSK_ISP_fSE_Li0ESR_Li4EEEfSE_NS4_9MmaPolicyINS1_4warp7MmaSimtINS6_ILi32ELi64ELi8EEEfSL_fSE_fSE_NSV_13MmaSimtPolicyINSB_ILi4ELi8EEENSD_19RowMajorInterleavedILi2EEENS6_ILi4ELi4ELi1EEEEELi1ELNS_16ComplexTransformE0ELS14_0EbEENSB_ILi4ELi0EEENSB_ILi0ELi0EEELi1EEENS_21NumericArrayConverterIffLi4ELNS_15FloatRoundStyleE2EEES1B_bEENS_8epilogue11threadblock8EpilogueIS7_S15_Li1ENS1E_22PredicatedTileIteratorINS1E_26OutputTileOptimalThreadMapINS1E_15OutputTileShapeILi128ELi1ELi4ELi4ELi1EEENS1I_ILi1ELi4ELi2ELi1ELi8EEELi256ELi1ELi32EEEfLb0EEENS1D_4warp20FragmentIteratorSimtISX_NS1_6thread3MmaINS6_ILi8ELi8ELi1EEEfSL_fSE_fSE_NS_4arch13OpMultiplyAddEbEESE_S13_EENS1N_16TileIteratorSimtISX_S1U_fSE_S13_EENS1E_18SharedLoadIteratorINS1L_18CompactedThreadMapEfLi4EEENS1D_6thread17LinearCombinationIfLi1EffLNS21_9ScaleType4KindE0ELS1A_2EEENSB_ILi0ELi17EEELi1ELi1EEENS4_30GemmIdentityThreadblockSwizzleILi1EEELb0EEEEEvNT_6ParamsE
GPGPU-Sim PTX: ... done pre-decoding instructions for '_ZN7cutlass6KernelINS_4gemm6kernel4GemmINS1_11threadblock12MmaPipelinedINS1_9GemmShapeILi128ELi128ELi8EEENS_9transform11threadblock22PredicatedTileIteratorINS_11MatrixShapeILi128ELi8EEEfNS_6layout8RowMajorELi1ENS8_30PitchLinearStripminedThreadMapINS_16PitchLinearShapeILi8ELi128EEELi256ELi1EEELi1EEENS9_19RegularTileIteratorISC_fNSD_11ColumnMajorELi1ENS8_33TransposePitchLinearThreadMapSimtISI_EELi4EEENSA_INSB_ILi8ELi128EEEfSE_Li0ENSF_INSG_ILi128ELi8EEELi256ELi1EEELi1EEENSK_ISP_fSE_Li0ESR_Li4EEEfSE_NS4_9MmaPolicyINS1_4warp7MmaSimtINS6_ILi32ELi64ELi8EEEfSL_fSE_fSE_NSV_13MmaSimtPolicyINSB_ILi4ELi8EEENSD_19RowMajorInterleavedILi2EEENS6_ILi4ELi4ELi1EEEEELi1ELNS_16ComplexTransformE0ELS14_0EbEENSB_ILi4ELi0EEENSB_ILi0ELi0EEELi1EEENS_21NumericArrayConverterIffLi4ELNS_15FloatRoundStyleE2EEES1B_bEENS_8epilogue11threadblock8EpilogueIS7_S15_Li1ENS1E_22PredicatedTileIteratorINS1E_26OutputTileOptimalThreadMapINS1E_15OutputTileShapeILi128ELi1ELi4ELi4ELi1EEENS1I_ILi1ELi4ELi2ELi1ELi8EEELi256ELi1ELi32EEEfLb0EEENS1D_4warp20FragmentIteratorSimtISX_NS1_6thread3MmaINS6_ILi8ELi8ELi1EEEfSL_fSE_fSE_NS_4arch13OpMultiplyAddEbEESE_S13_EENS1N_16TileIteratorSimtISX_S1U_fSE_S13_EENS1E_18SharedLoadIteratorINS1L_18CompactedThreadMapEfLi4EEENS1D_6thread17LinearCombinationIfLi1EffLNS21_9ScaleType4KindE0ELS1A_2EEENSB_ILi0ELi17EEELi1ELi1EEENS4_30GemmIdentityThreadblockSwizzleILi1EEELb0EEEEEvNT_6ParamsE'.
GPGPU-Sim PTX: pushing kernel '_ZN7cutlass6KernelINS_4gemm6kernel4GemmINS1_11threadblock12MmaPipelinedINS1_9GemmShapeILi128ELi128ELi8EEENS_9transform11threadblock22PredicatedTileIteratorINS_11MatrixShapeILi128ELi8EEEfNS_6layout8RowMajorELi1ENS8_30PitchLinearStripminedThreadMapINS_16PitchLinearShapeILi8ELi128EEELi256ELi1EEELi1EEENS9_19RegularTileIteratorISC_fNSD_11ColumnMajorELi1ENS8_33TransposePitchLinearThreadMapSimtISI_EELi4EEENSA_INSB_ILi8ELi128EEEfSE_Li0ENSF_INSG_ILi128ELi8EEELi256ELi1EEELi1EEENSK_ISP_fSE_Li0ESR_Li4EEEfSE_NS4_9MmaPolicyINS1_4warp7MmaSimtINS6_ILi32ELi64ELi8EEEfSL_fSE_fSE_NSV_13MmaSimtPolicyINSB_ILi4ELi8EEENSD_19RowMajorInterleavedILi2EEENS6_ILi4ELi4ELi1EEEEELi1ELNS_16ComplexTransformE0ELS14_0EbEENSB_ILi4ELi0EEENSB_ILi0ELi0EEELi1EEENS_21NumericArrayConverterIffLi4ELNS_15FloatRoundStyleE2EEES1B_bEENS_8epilogue11threadblock8EpilogueIS7_S15_Li1ENS1E_22PredicatedTileIteratorINS1E_26OutputTileOptimalThreadMapINS1E_15OutputTileShapeILi128ELi1ELi4ELi4ELi1EEENS1I_ILi1ELi4ELi2ELi1ELi8EEELi256ELi1ELi32EEEfLb0EEENS1D_4warp20FragmentIteratorSimtISX_NS1_6thread3MmaINS6_ILi8ELi8ELi1EEEfSL_fSE_fSE_NS_4arch13OpMultiplyAddEbEESE_S13_EENS1N_16TileIteratorSimtISX_S1U_fSE_S13_EENS1E_18SharedLoadIteratorINS1L_18CompactedThreadMapEfLi4EEENS1D_6thread17LinearCombinationIfLi1EffLNS21_9ScaleType4KindE0ELS1A_2EEENSB_ILi0ELi17EEELi1ELi1EEENS4_30GemmIdentityThreadblockSwizzleILi1EEELb0EEEEEvNT_6ParamsE' to stream 0, gridDim= (4,4,1) blockDim = (256,1,1) 
GPGPU-Sim uArch: Shader 0 bind to kernel 1 '_ZN7cutlass6KernelINS_4gemm6kernel4GemmINS1_11threadblock12MmaPipelinedINS1_9GemmShapeILi128ELi128ELi8EEENS_9transform11threadblock22PredicatedTileIteratorINS_11MatrixShapeILi128ELi8EEEfNS_6layout8RowMajorELi1ENS8_30PitchLinearStripminedThreadMapINS_16PitchLinearShapeILi8ELi128EEELi256ELi1EEELi1EEENS9_19RegularTileIteratorISC_fNSD_11ColumnMajorELi1ENS8_33TransposePitchLinearThreadMapSimtISI_EELi4EEENSA_INSB_ILi8ELi128EEEfSE_Li0ENSF_INSG_ILi128ELi8EEELi256ELi1EEELi1EEENSK_ISP_fSE_Li0ESR_Li4EEEfSE_NS4_9MmaPolicyINS1_4warp7MmaSimtINS6_ILi32ELi64ELi8EEEfSL_fSE_fSE_NSV_13MmaSimtPolicyINSB_ILi4ELi8EEENSD_19RowMajorInterleavedILi2EEENS6_ILi4ELi4ELi1EEEEELi1ELNS_16ComplexTransformE0ELS14_0EbEENSB_ILi4ELi0EEENSB_ILi0ELi0EEELi1EEENS_21NumericArrayConverterIffLi4ELNS_15FloatRoundStyleE2EEES1B_bEENS_8epilogue11threadblock8EpilogueIS7_S15_Li1ENS1E_22PredicatedTileIteratorINS1E_26OutputTileOptimalThreadMapINS1E_15OutputTileShapeILi128ELi1ELi4ELi4ELi1EEENS1I_ILi1ELi4ELi2ELi1ELi8EEELi256ELi1ELi32EEEfLb0EEENS1D_4warp20FragmentIteratorSimtISX_NS1_6thread3MmaINS6_ILi8ELi8ELi1EEEfSL_fSE_fSE_NS_4arch13OpMultiplyAddEbEESE_S13_EENS1N_16TileIteratorSimtISX_S1U_fSE_S13_EENS1E_18SharedLoadIteratorINS1L_18CompactedThreadMapEfLi4EEENS1D_6thread17LinearCombinationIfLi1EffLNS21_9ScaleType4KindE0ELS1A_2EEENSB_ILi0ELi17EEELi1ELi1EEENS4_30GemmIdentityThreadblockSwizzleILi1EEELb0EEEEEvNT_6ParamsE'
GPGPU-Sim uArch: CTA/core = 1, limited by: regs
GPGPU-Sim: Reconfigure L1 cache to 128KB
GPGPU-Sim uArch: Shader 1 bind to kernel 1 '_ZN7cutlass6KernelINS_4gemm6kernel4GemmINS1_11threadblock12MmaPipelinedINS1_9GemmShapeILi128ELi128ELi8EEENS_9transform11threadblock22PredicatedTileIteratorINS_11MatrixShapeILi128ELi8EEEfNS_6layout8RowMajorELi1ENS8_30PitchLinearStripminedThreadMapINS_16PitchLinearShapeILi8ELi128EEELi256ELi1EEELi1EEENS9_19RegularTileIteratorISC_fNSD_11ColumnMajorELi1ENS8_33TransposePitchLinearThreadMapSimtISI_EELi4EEENSA_INSB_ILi8ELi128EEEfSE_Li0ENSF_INSG_ILi128ELi8EEELi256ELi1EEELi1EEENSK_ISP_fSE_Li0ESR_Li4EEEfSE_NS4_9MmaPolicyINS1_4warp7MmaSimtINS6_ILi32ELi64ELi8EEEfSL_fSE_fSE_NSV_13MmaSimtPolicyINSB_ILi4ELi8EEENSD_19RowMajorInterleavedILi2EEENS6_ILi4ELi4ELi1EEEEELi1ELNS_16ComplexTransformE0ELS14_0EbEENSB_ILi4ELi0EEENSB_ILi0ELi0EEELi1EEENS_21NumericArrayConverterIffLi4ELNS_15FloatRoundStyleE2EEES1B_bEENS_8epilogue11threadblock8EpilogueIS7_S15_Li1ENS1E_22PredicatedTileIteratorINS1E_26OutputTileOptimalThreadMapINS1E_15OutputTileShapeILi128ELi1ELi4ELi4ELi1EEENS1I_ILi1ELi4ELi2ELi1ELi8EEELi256ELi1ELi32EEEfLb0EEENS1D_4warp20FragmentIteratorSimtISX_NS1_6thread3MmaINS6_ILi8ELi8ELi1EEEfSL_fSE_fSE_NS_4arch13OpMultiplyAddEbEESE_S13_EENS1N_16TileIteratorSimtISX_S1U_fSE_S13_EENS1E_18SharedLoadIteratorINS1L_18CompactedThreadMapEfLi4EEENS1D_6thread17LinearCombinationIfLi1EffLNS21_9ScaleType4KindE0ELS1A_2EEENSB_ILi0ELi17EEELi1ELi1EEENS4_30GemmIdentityThreadblockSwizzleILi1EEELb0EEEEEvNT_6ParamsE'
GPGPU-Sim uArch: Shader 2 bind to kernel 1 '_ZN7cutlass6KernelINS_4gemm6kernel4GemmINS1_11threadblock12MmaPipelinedINS1_9GemmShapeILi128ELi128ELi8EEENS_9transform11threadblock22PredicatedTileIteratorINS_11MatrixShapeILi128ELi8EEEfNS_6layout8RowMajorELi1ENS8_30PitchLinearStripminedThreadMapINS_16PitchLinearShapeILi8ELi128EEELi256ELi1EEELi1EEENS9_19RegularTileIteratorISC_fNSD_11ColumnMajorELi1ENS8_33TransposePitchLinearThreadMapSimtISI_EELi4EEENSA_INSB_ILi8ELi128EEEfSE_Li0ENSF_INSG_ILi128ELi8EEELi256ELi1EEELi1EEENSK_ISP_fSE_Li0ESR_Li4EEEfSE_NS4_9MmaPolicyINS1_4warp7MmaSimtINS6_ILi32ELi64ELi8EEEfSL_fSE_fSE_NSV_13MmaSimtPolicyINSB_ILi4ELi8EEENSD_19RowMajorInterleavedILi2EEENS6_ILi4ELi4ELi1EEEEELi1ELNS_16ComplexTransformE0ELS14_0EbEENSB_ILi4ELi0EEENSB_ILi0ELi0EEELi1EEENS_21NumericArrayConverterIffLi4ELNS_15FloatRoundStyleE2EEES1B_bEENS_8epilogue11threadblock8EpilogueIS7_S15_Li1ENS1E_22PredicatedTileIteratorINS1E_26OutputTileOptimalThreadMapINS1E_15OutputTileShapeILi128ELi1ELi4ELi4ELi1EEENS1I_ILi1ELi4ELi2ELi1ELi8EEELi256ELi1ELi32EEEfLb0EEENS1D_4warp20FragmentIteratorSimtISX_NS1_6thread3MmaINS6_ILi8ELi8ELi1EEEfSL_fSE_fSE_NS_4arch13OpMultiplyAddEbEESE_S13_EENS1N_16TileIteratorSimtISX_S1U_fSE_S13_EENS1E_18SharedLoadIteratorINS1L_18CompactedThreadMapEfLi4EEENS1D_6thread17LinearCombinationIfLi1EffLNS21_9ScaleType4KindE0ELS1A_2EEENSB_ILi0ELi17EEELi1ELi1EEENS4_30GemmIdentityThreadblockSwizzleILi1EEELb0EEEEEvNT_6ParamsE'
GPGPU-Sim uArch: Shader 3 bind to kernel 1 '_ZN7cutlass6KernelINS_4gemm6kernel4GemmINS1_11threadblock12MmaPipelinedINS1_9GemmShapeILi128ELi128ELi8EEENS_9transform11threadblock22PredicatedTileIteratorINS_11MatrixShapeILi128ELi8EEEfNS_6layout8RowMajorELi1ENS8_30PitchLinearStripminedThreadMapINS_16PitchLinearShapeILi8ELi128EEELi256ELi1EEELi1EEENS9_19RegularTileIteratorISC_fNSD_11ColumnMajorELi1ENS8_33TransposePitchLinearThreadMapSimtISI_EELi4EEENSA_INSB_ILi8ELi128EEEfSE_Li0ENSF_INSG_ILi128ELi8EEELi256ELi1EEELi1EEENSK_ISP_fSE_Li0ESR_Li4EEEfSE_NS4_9MmaPolicyINS1_4warp7MmaSimtINS6_ILi32ELi64ELi8EEEfSL_fSE_fSE_NSV_13MmaSimtPolicyINSB_ILi4ELi8EEENSD_19RowMajorInterleavedILi2EEENS6_ILi4ELi4ELi1EEEEELi1ELNS_16ComplexTransformE0ELS14_0EbEENSB_ILi4ELi0EEENSB_ILi0ELi0EEELi1EEENS_21NumericArrayConverterIffLi4ELNS_15FloatRoundStyleE2EEES1B_bEENS_8epilogue11threadblock8EpilogueIS7_S15_Li1ENS1E_22PredicatedTileIteratorINS1E_26OutputTileOptimalThreadMapINS1E_15OutputTileShapeILi128ELi1ELi4ELi4ELi1EEENS1I_ILi1ELi4ELi2ELi1ELi8EEELi256ELi1ELi32EEEfLb0EEENS1D_4warp20FragmentIteratorSimtISX_NS1_6thread3MmaINS6_ILi8ELi8ELi1EEEfSL_fSE_fSE_NS_4arch13OpMultiplyAddEbEESE_S13_EENS1N_16TileIteratorSimtISX_S1U_fSE_S13_EENS1E_18SharedLoadIteratorINS1L_18CompactedThreadMapEfLi4EEENS1D_6thread17LinearCombinationIfLi1EffLNS21_9ScaleType4KindE0ELS1A_2EEENSB_ILi0ELi17EEELi1ELi1EEENS4_30GemmIdentityThreadblockSwizzleILi1EEELb0EEEEEvNT_6ParamsE'
GPGPU-Sim uArch: Shader 4 bind to kernel 1 '_ZN7cutlass6KernelINS_4gemm6kernel4GemmINS1_11threadblock12MmaPipelinedINS1_9GemmShapeILi128ELi128ELi8EEENS_9transform11threadblock22PredicatedTileIteratorINS_11MatrixShapeILi128ELi8EEEfNS_6layout8RowMajorELi1ENS8_30PitchLinearStripminedThreadMapINS_16PitchLinearShapeILi8ELi128EEELi256ELi1EEELi1EEENS9_19RegularTileIteratorISC_fNSD_11ColumnMajorELi1ENS8_33TransposePitchLinearThreadMapSimtISI_EELi4EEENSA_INSB_ILi8ELi128EEEfSE_Li0ENSF_INSG_ILi128ELi8EEELi256ELi1EEELi1EEENSK_ISP_fSE_Li0ESR_Li4EEEfSE_NS4_9MmaPolicyINS1_4warp7MmaSimtINS6_ILi32ELi64ELi8EEEfSL_fSE_fSE_NSV_13MmaSimtPolicyINSB_ILi4ELi8EEENSD_19RowMajorInterleavedILi2EEENS6_ILi4ELi4ELi1EEEEELi1ELNS_16ComplexTransformE0ELS14_0EbEENSB_ILi4ELi0EEENSB_ILi0ELi0EEELi1EEENS_21NumericArrayConverterIffLi4ELNS_15FloatRoundStyleE2EEES1B_bEENS_8epilogue11threadblock8EpilogueIS7_S15_Li1ENS1E_22PredicatedTileIteratorINS1E_26OutputTileOptimalThreadMapINS1E_15OutputTileShapeILi128ELi1ELi4ELi4ELi1EEENS1I_ILi1ELi4ELi2ELi1ELi8EEELi256ELi1ELi32EEEfLb0EEENS1D_4warp20FragmentIteratorSimtISX_NS1_6thread3MmaINS6_ILi8ELi8ELi1EEEfSL_fSE_fSE_NS_4arch13OpMultiplyAddEbEESE_S13_EENS1N_16TileIteratorSimtISX_S1U_fSE_S13_EENS1E_18SharedLoadIteratorINS1L_18CompactedThreadMapEfLi4EEENS1D_6thread17LinearCombinationIfLi1EffLNS21_9ScaleType4KindE0ELS1A_2EEENSB_ILi0ELi17EEELi1ELi1EEENS4_30GemmIdentityThreadblockSwizzleILi1EEELb0EEEEEvNT_6ParamsE'
GPGPU-Sim uArch: Shader 5 bind to kernel 1 '_ZN7cutlass6KernelINS_4gemm6kernel4GemmINS1_11threadblock12MmaPipelinedINS1_9GemmShapeILi128ELi128ELi8EEENS_9transform11threadblock22PredicatedTileIteratorINS_11MatrixShapeILi128ELi8EEEfNS_6layout8RowMajorELi1ENS8_30PitchLinearStripminedThreadMapINS_16PitchLinearShapeILi8ELi128EEELi256ELi1EEELi1EEENS9_19RegularTileIteratorISC_fNSD_11ColumnMajorELi1ENS8_33TransposePitchLinearThreadMapSimtISI_EELi4EEENSA_INSB_ILi8ELi128EEEfSE_Li0ENSF_INSG_ILi128ELi8EEELi256ELi1EEELi1EEENSK_ISP_fSE_Li0ESR_Li4EEEfSE_NS4_9MmaPolicyINS1_4warp7MmaSimtINS6_ILi32ELi64ELi8EEEfSL_fSE_fSE_NSV_13MmaSimtPolicyINSB_ILi4ELi8EEENSD_19RowMajorInterleavedILi2EEENS6_ILi4ELi4ELi1EEEEELi1ELNS_16ComplexTransformE0ELS14_0EbEENSB_ILi4ELi0EEENSB_ILi0ELi0EEELi1EEENS_21NumericArrayConverterIffLi4ELNS_15FloatRoundStyleE2EEES1B_bEENS_8epilogue11threadblock8EpilogueIS7_S15_Li1ENS1E_22PredicatedTileIteratorINS1E_26OutputTileOptimalThreadMapINS1E_15OutputTileShapeILi128ELi1ELi4ELi4ELi1EEENS1I_ILi1ELi4ELi2ELi1ELi8EEELi256ELi1ELi32EEEfLb0EEENS1D_4warp20FragmentIteratorSimtISX_NS1_6thread3MmaINS6_ILi8ELi8ELi1EEEfSL_fSE_fSE_NS_4arch13OpMultiplyAddEbEESE_S13_EENS1N_16TileIteratorSimtISX_S1U_fSE_S13_EENS1E_18SharedLoadIteratorINS1L_18CompactedThreadMapEfLi4EEENS1D_6thread17LinearCombinationIfLi1EffLNS21_9ScaleType4KindE0ELS1A_2EEENSB_ILi0ELi17EEELi1ELi1EEENS4_30GemmIdentityThreadblockSwizzleILi1EEELb0EEEEEvNT_6ParamsE'
GPGPU-Sim uArch: Shader 6 bind to kernel 1 '_ZN7cutlass6KernelINS_4gemm6kernel4GemmINS1_11threadblock12MmaPipelinedINS1_9GemmShapeILi128ELi128ELi8EEENS_9transform11threadblock22PredicatedTileIteratorINS_11MatrixShapeILi128ELi8EEEfNS_6layout8RowMajorELi1ENS8_30PitchLinearStripminedThreadMapINS_16PitchLinearShapeILi8ELi128EEELi256ELi1EEELi1EEENS9_19RegularTileIteratorISC_fNSD_11ColumnMajorELi1ENS8_33TransposePitchLinearThreadMapSimtISI_EELi4EEENSA_INSB_ILi8ELi128EEEfSE_Li0ENSF_INSG_ILi128ELi8EEELi256ELi1EEELi1EEENSK_ISP_fSE_Li0ESR_Li4EEEfSE_NS4_9MmaPolicyINS1_4warp7MmaSimtINS6_ILi32ELi64ELi8EEEfSL_fSE_fSE_NSV_13MmaSimtPolicyINSB_ILi4ELi8EEENSD_19RowMajorInterleavedILi2EEENS6_ILi4ELi4ELi1EEEEELi1ELNS_16ComplexTransformE0ELS14_0EbEENSB_ILi4ELi0EEENSB_ILi0ELi0EEELi1EEENS_21NumericArrayConverterIffLi4ELNS_15FloatRoundStyleE2EEES1B_bEENS_8epilogue11threadblock8EpilogueIS7_S15_Li1ENS1E_22PredicatedTileIteratorINS1E_26OutputTileOptimalThreadMapINS1E_15OutputTileShapeILi128ELi1ELi4ELi4ELi1EEENS1I_ILi1ELi4ELi2ELi1ELi8EEELi256ELi1ELi32EEEfLb0EEENS1D_4warp20FragmentIteratorSimtISX_NS1_6thread3MmaINS6_ILi8ELi8ELi1EEEfSL_fSE_fSE_NS_4arch13OpMultiplyAddEbEESE_S13_EENS1N_16TileIteratorSimtISX_S1U_fSE_S13_EENS1E_18SharedLoadIteratorINS1L_18CompactedThreadMapEfLi4EEENS1D_6thread17LinearCombinationIfLi1EffLNS21_9ScaleType4KindE0ELS1A_2EEENSB_ILi0ELi17EEELi1ELi1EEENS4_30GemmIdentityThreadblockSwizzleILi1EEELb0EEEEEvNT_6ParamsE'
GPGPU-Sim uArch: Shader 7 bind to kernel 1 '_ZN7cutlass6KernelINS_4gemm6kernel4GemmINS1_11threadblock12MmaPipelinedINS1_9GemmShapeILi128ELi128ELi8EEENS_9transform11threadblock22PredicatedTileIteratorINS_11MatrixShapeILi128ELi8EEEfNS_6layout8RowMajorELi1ENS8_30PitchLinearStripminedThreadMapINS_16PitchLinearShapeILi8ELi128EEELi256ELi1EEELi1EEENS9_19RegularTileIteratorISC_fNSD_11ColumnMajorELi1ENS8_33TransposePitchLinearThreadMapSimtISI_EELi4EEENSA_INSB_ILi8ELi128EEEfSE_Li0ENSF_INSG_ILi128ELi8EEELi256ELi1EEELi1EEENSK_ISP_fSE_Li0ESR_Li4EEEfSE_NS4_9MmaPolicyINS1_4warp7MmaSimtINS6_ILi32ELi64ELi8EEEfSL_fSE_fSE_NSV_13MmaSimtPolicyINSB_ILi4ELi8EEENSD_19RowMajorInterleavedILi2EEENS6_ILi4ELi4ELi1EEEEELi1ELNS_16ComplexTransformE0ELS14_0EbEENSB_ILi4ELi0EEENSB_ILi0ELi0EEELi1EEENS_21NumericArrayConverterIffLi4ELNS_15FloatRoundStyleE2EEES1B_bEENS_8epilogue11threadblock8EpilogueIS7_S15_Li1ENS1E_22PredicatedTileIteratorINS1E_26OutputTileOptimalThreadMapINS1E_15OutputTileShapeILi128ELi1ELi4ELi4ELi1EEENS1I_ILi1ELi4ELi2ELi1ELi8EEELi256ELi1ELi32EEEfLb0EEENS1D_4warp20FragmentIteratorSimtISX_NS1_6thread3MmaINS6_ILi8ELi8ELi1EEEfSL_fSE_fSE_NS_4arch13OpMultiplyAddEbEESE_S13_EENS1N_16TileIteratorSimtISX_S1U_fSE_S13_EENS1E_18SharedLoadIteratorINS1L_18CompactedThreadMapEfLi4EEENS1D_6thread17LinearCombinationIfLi1EffLNS21_9ScaleType4KindE0ELS1A_2EEENSB_ILi0ELi17EEELi1ELi1EEENS4_30GemmIdentityThreadblockSwizzleILi1EEELb0EEEEEvNT_6ParamsE'
GPGPU-Sim uArch: Shader 8 bind to kernel 1 '_ZN7cutlass6KernelINS_4gemm6kernel4GemmINS1_11threadblock12MmaPipelinedINS1_9GemmShapeILi128ELi128ELi8EEENS_9transform11threadblock22PredicatedTileIteratorINS_11MatrixShapeILi128ELi8EEEfNS_6layout8RowMajorELi1ENS8_30PitchLinearStripminedThreadMapINS_16PitchLinearShapeILi8ELi128EEELi256ELi1EEELi1EEENS9_19RegularTileIteratorISC_fNSD_11ColumnMajorELi1ENS8_33TransposePitchLinearThreadMapSimtISI_EELi4EEENSA_INSB_ILi8ELi128EEEfSE_Li0ENSF_INSG_ILi128ELi8EEELi256ELi1EEELi1EEENSK_ISP_fSE_Li0ESR_Li4EEEfSE_NS4_9MmaPolicyINS1_4warp7MmaSimtINS6_ILi32ELi64ELi8EEEfSL_fSE_fSE_NSV_13MmaSimtPolicyINSB_ILi4ELi8EEENSD_19RowMajorInterleavedILi2EEENS6_ILi4ELi4ELi1EEEEELi1ELNS_16ComplexTransformE0ELS14_0EbEENSB_ILi4ELi0EEENSB_ILi0ELi0EEELi1EEENS_21NumericArrayConverterIffLi4ELNS_15FloatRoundStyleE2EEES1B_bEENS_8epilogue11threadblock8EpilogueIS7_S15_Li1ENS1E_22PredicatedTileIteratorINS1E_26OutputTileOptimalThreadMapINS1E_15OutputTileShapeILi128ELi1ELi4ELi4ELi1EEENS1I_ILi1ELi4ELi2ELi1ELi8EEELi256ELi1ELi32EEEfLb0EEENS1D_4warp20FragmentIteratorSimtISX_NS1_6thread3MmaINS6_ILi8ELi8ELi1EEEfSL_fSE_fSE_NS_4arch13OpMultiplyAddEbEESE_S13_EENS1N_16TileIteratorSimtISX_S1U_fSE_S13_EENS1E_18SharedLoadIteratorINS1L_18CompactedThreadMapEfLi4EEENS1D_6thread17LinearCombinationIfLi1EffLNS21_9ScaleType4KindE0ELS1A_2EEENSB_ILi0ELi17EEELi1ELi1EEENS4_30GemmIdentityThreadblockSwizzleILi1EEELb0EEEEEvNT_6ParamsE'
GPGPU-Sim uArch: Shader 9 bind to kernel 1 '_ZN7cutlass6KernelINS_4gemm6kernel4GemmINS1_11threadblock12MmaPipelinedINS1_9GemmShapeILi128ELi128ELi8EEENS_9transform11threadblock22PredicatedTileIteratorINS_11MatrixShapeILi128ELi8EEEfNS_6layout8RowMajorELi1ENS8_30PitchLinearStripminedThreadMapINS_16PitchLinearShapeILi8ELi128EEELi256ELi1EEELi1EEENS9_19RegularTileIteratorISC_fNSD_11ColumnMajorELi1ENS8_33TransposePitchLinearThreadMapSimtISI_EELi4EEENSA_INSB_ILi8ELi128EEEfSE_Li0ENSF_INSG_ILi128ELi8EEELi256ELi1EEELi1EEENSK_ISP_fSE_Li0ESR_Li4EEEfSE_NS4_9MmaPolicyINS1_4warp7MmaSimtINS6_ILi32ELi64ELi8EEEfSL_fSE_fSE_NSV_13MmaSimtPolicyINSB_ILi4ELi8EEENSD_19RowMajorInterleavedILi2EEENS6_ILi4ELi4ELi1EEEEELi1ELNS_16ComplexTransformE0ELS14_0EbEENSB_ILi4ELi0EEENSB_ILi0ELi0EEELi1EEENS_21NumericArrayConverterIffLi4ELNS_15FloatRoundStyleE2EEES1B_bEENS_8epilogue11threadblock8EpilogueIS7_S15_Li1ENS1E_22PredicatedTileIteratorINS1E_26OutputTileOptimalThreadMapINS1E_15OutputTileShapeILi128ELi1ELi4ELi4ELi1EEENS1I_ILi1ELi4ELi2ELi1ELi8EEELi256ELi1ELi32EEEfLb0EEENS1D_4warp20FragmentIteratorSimtISX_NS1_6thread3MmaINS6_ILi8ELi8ELi1EEEfSL_fSE_fSE_NS_4arch13OpMultiplyAddEbEESE_S13_EENS1N_16TileIteratorSimtISX_S1U_fSE_S13_EENS1E_18SharedLoadIteratorINS1L_18CompactedThreadMapEfLi4EEENS1D_6thread17LinearCombinationIfLi1EffLNS21_9ScaleType4KindE0ELS1A_2EEENSB_ILi0ELi17EEELi1ELi1EEENS4_30GemmIdentityThreadblockSwizzleILi1EEELb0EEEEEvNT_6ParamsE'
GPGPU-Sim uArch: Shader 10 bind to kernel 1 '_ZN7cutlass6KernelINS_4gemm6kernel4GemmINS1_11threadblock12MmaPipelinedINS1_9GemmShapeILi128ELi128ELi8EEENS_9transform11threadblock22PredicatedTileIteratorINS_11MatrixShapeILi128ELi8EEEfNS_6layout8RowMajorELi1ENS8_30PitchLinearStripminedThreadMapINS_16PitchLinearShapeILi8ELi128EEELi256ELi1EEELi1EEENS9_19RegularTileIteratorISC_fNSD_11ColumnMajorELi1ENS8_33TransposePitchLinearThreadMapSimtISI_EELi4EEENSA_INSB_ILi8ELi128EEEfSE_Li0ENSF_INSG_ILi128ELi8EEELi256ELi1EEELi1EEENSK_ISP_fSE_Li0ESR_Li4EEEfSE_NS4_9MmaPolicyINS1_4warp7MmaSimtINS6_ILi32ELi64ELi8EEEfSL_fSE_fSE_NSV_13MmaSimtPolicyINSB_ILi4ELi8EEENSD_19RowMajorInterleavedILi2EEENS6_ILi4ELi4ELi1EEEEELi1ELNS_16ComplexTransformE0ELS14_0EbEENSB_ILi4ELi0EEENSB_ILi0ELi0EEELi1EEENS_21NumericArrayConverterIffLi4ELNS_15FloatRoundStyleE2EEES1B_bEENS_8epilogue11threadblock8EpilogueIS7_S15_Li1ENS1E_22PredicatedTileIteratorINS1E_26OutputTileOptimalThreadMapINS1E_15OutputTileShapeILi128ELi1ELi4ELi4ELi1EEENS1I_ILi1ELi4ELi2ELi1ELi8EEELi256ELi1ELi32EEEfLb0EEENS1D_4warp20FragmentIteratorSimtISX_NS1_6thread3MmaINS6_ILi8ELi8ELi1EEEfSL_fSE_fSE_NS_4arch13OpMultiplyAddEbEESE_S13_EENS1N_16TileIteratorSimtISX_S1U_fSE_S13_EENS1E_18SharedLoadIteratorINS1L_18CompactedThreadMapEfLi4EEENS1D_6thread17LinearCombinationIfLi1EffLNS21_9ScaleType4KindE0ELS1A_2EEENSB_ILi0ELi17EEELi1ELi1EEENS4_30GemmIdentityThreadblockSwizzleILi1EEELb0EEEEEvNT_6ParamsE'
GPGPU-Sim uArch: Shader 11 bind to kernel 1 '_ZN7cutlass6KernelINS_4gemm6kernel4GemmINS1_11threadblock12MmaPipelinedINS1_9GemmShapeILi128ELi128ELi8EEENS_9transform11threadblock22PredicatedTileIteratorINS_11MatrixShapeILi128ELi8EEEfNS_6layout8RowMajorELi1ENS8_30PitchLinearStripminedThreadMapINS_16PitchLinearShapeILi8ELi128EEELi256ELi1EEELi1EEENS9_19RegularTileIteratorISC_fNSD_11ColumnMajorELi1ENS8_33TransposePitchLinearThreadMapSimtISI_EELi4EEENSA_INSB_ILi8ELi128EEEfSE_Li0ENSF_INSG_ILi128ELi8EEELi256ELi1EEELi1EEENSK_ISP_fSE_Li0ESR_Li4EEEfSE_NS4_9MmaPolicyINS1_4warp7MmaSimtINS6_ILi32ELi64ELi8EEEfSL_fSE_fSE_NSV_13MmaSimtPolicyINSB_ILi4ELi8EEENSD_19RowMajorInterleavedILi2EEENS6_ILi4ELi4ELi1EEEEELi1ELNS_16ComplexTransformE0ELS14_0EbEENSB_ILi4ELi0EEENSB_ILi0ELi0EEELi1EEENS_21NumericArrayConverterIffLi4ELNS_15FloatRoundStyleE2EEES1B_bEENS_8epilogue11threadblock8EpilogueIS7_S15_Li1ENS1E_22PredicatedTileIteratorINS1E_26OutputTileOptimalThreadMapINS1E_15OutputTileShapeILi128ELi1ELi4ELi4ELi1EEENS1I_ILi1ELi4ELi2ELi1ELi8EEELi256ELi1ELi32EEEfLb0EEENS1D_4warp20FragmentIteratorSimtISX_NS1_6thread3MmaINS6_ILi8ELi8ELi1EEEfSL_fSE_fSE_NS_4arch13OpMultiplyAddEbEESE_S13_EENS1N_16TileIteratorSimtISX_S1U_fSE_S13_EENS1E_18SharedLoadIteratorINS1L_18CompactedThreadMapEfLi4EEENS1D_6thread17LinearCombinationIfLi1EffLNS21_9ScaleType4KindE0ELS1A_2EEENSB_ILi0ELi17EEELi1ELi1EEENS4_30GemmIdentityThreadblockSwizzleILi1EEELb0EEEEEvNT_6ParamsE'
GPGPU-Sim uArch: Shader 12 bind to kernel 1 '_ZN7cutlass6KernelINS_4gemm6kernel4GemmINS1_11threadblock12MmaPipelinedINS1_9GemmShapeILi128ELi128ELi8EEENS_9transform11threadblock22PredicatedTileIteratorINS_11MatrixShapeILi128ELi8EEEfNS_6layout8RowMajorELi1ENS8_30PitchLinearStripminedThreadMapINS_16PitchLinearShapeILi8ELi128EEELi256ELi1EEELi1EEENS9_19RegularTileIteratorISC_fNSD_11ColumnMajorELi1ENS8_33TransposePitchLinearThreadMapSimtISI_EELi4EEENSA_INSB_ILi8ELi128EEEfSE_Li0ENSF_INSG_ILi128ELi8EEELi256ELi1EEELi1EEENSK_ISP_fSE_Li0ESR_Li4EEEfSE_NS4_9MmaPolicyINS1_4warp7MmaSimtINS6_ILi32ELi64ELi8EEEfSL_fSE_fSE_NSV_13MmaSimtPolicyINSB_ILi4ELi8EEENSD_19RowMajorInterleavedILi2EEENS6_ILi4ELi4ELi1EEEEELi1ELNS_16ComplexTransformE0ELS14_0EbEENSB_ILi4ELi0EEENSB_ILi0ELi0EEELi1EEENS_21NumericArrayConverterIffLi4ELNS_15FloatRoundStyleE2EEES1B_bEENS_8epilogue11threadblock8EpilogueIS7_S15_Li1ENS1E_22PredicatedTileIteratorINS1E_26OutputTileOptimalThreadMapINS1E_15OutputTileShapeILi128ELi1ELi4ELi4ELi1EEENS1I_ILi1ELi4ELi2ELi1ELi8EEELi256ELi1ELi32EEEfLb0EEENS1D_4warp20FragmentIteratorSimtISX_NS1_6thread3MmaINS6_ILi8ELi8ELi1EEEfSL_fSE_fSE_NS_4arch13OpMultiplyAddEbEESE_S13_EENS1N_16TileIteratorSimtISX_S1U_fSE_S13_EENS1E_18SharedLoadIteratorINS1L_18CompactedThreadMapEfLi4EEENS1D_6thread17LinearCombinationIfLi1EffLNS21_9ScaleType4KindE0ELS1A_2EEENSB_ILi0ELi17EEELi1ELi1EEENS4_30GemmIdentityThreadblockSwizzleILi1EEELb0EEEEEvNT_6ParamsE'
GPGPU-Sim uArch: Shader 13 bind to kernel 1 '_ZN7cutlass6KernelINS_4gemm6kernel4GemmINS1_11threadblock12MmaPipelinedINS1_9GemmShapeILi128ELi128ELi8EEENS_9transform11threadblock22PredicatedTileIteratorINS_11MatrixShapeILi128ELi8EEEfNS_6layout8RowMajorELi1ENS8_30PitchLinearStripminedThreadMapINS_16PitchLinearShapeILi8ELi128EEELi256ELi1EEELi1EEENS9_19RegularTileIteratorISC_fNSD_11ColumnMajorELi1ENS8_33TransposePitchLinearThreadMapSimtISI_EELi4EEENSA_INSB_ILi8ELi128EEEfSE_Li0ENSF_INSG_ILi128ELi8EEELi256ELi1EEELi1EEENSK_ISP_fSE_Li0ESR_Li4EEEfSE_NS4_9MmaPolicyINS1_4warp7MmaSimtINS6_ILi32ELi64ELi8EEEfSL_fSE_fSE_NSV_13MmaSimtPolicyINSB_ILi4ELi8EEENSD_19RowMajorInterleavedILi2EEENS6_ILi4ELi4ELi1EEEEELi1ELNS_16ComplexTransformE0ELS14_0EbEENSB_ILi4ELi0EEENSB_ILi0ELi0EEELi1EEENS_21NumericArrayConverterIffLi4ELNS_15FloatRoundStyleE2EEES1B_bEENS_8epilogue11threadblock8EpilogueIS7_S15_Li1ENS1E_22PredicatedTileIteratorINS1E_26OutputTileOptimalThreadMapINS1E_15OutputTileShapeILi128ELi1ELi4ELi4ELi1EEENS1I_ILi1ELi4ELi2ELi1ELi8EEELi256ELi1ELi32EEEfLb0EEENS1D_4warp20FragmentIteratorSimtISX_NS1_6thread3MmaINS6_ILi8ELi8ELi1EEEfSL_fSE_fSE_NS_4arch13OpMultiplyAddEbEESE_S13_EENS1N_16TileIteratorSimtISX_S1U_fSE_S13_EENS1E_18SharedLoadIteratorINS1L_18CompactedThreadMapEfLi4EEENS1D_6thread17LinearCombinationIfLi1EffLNS21_9ScaleType4KindE0ELS1A_2EEENSB_ILi0ELi17EEELi1ELi1EEENS4_30GemmIdentityThreadblockSwizzleILi1EEELb0EEEEEvNT_6ParamsE'
GPGPU-Sim uArch: Shader 14 bind to kernel 1 '_ZN7cutlass6KernelINS_4gemm6kernel4GemmINS1_11threadblock12MmaPipelinedINS1_9GemmShapeILi128ELi128ELi8EEENS_9transform11threadblock22PredicatedTileIteratorINS_11MatrixShapeILi128ELi8EEEfNS_6layout8RowMajorELi1ENS8_30PitchLinearStripminedThreadMapINS_16PitchLinearShapeILi8ELi128EEELi256ELi1EEELi1EEENS9_19RegularTileIteratorISC_fNSD_11ColumnMajorELi1ENS8_33TransposePitchLinearThreadMapSimtISI_EELi4EEENSA_INSB_ILi8ELi128EEEfSE_Li0ENSF_INSG_ILi128ELi8EEELi256ELi1EEELi1EEENSK_ISP_fSE_Li0ESR_Li4EEEfSE_NS4_9MmaPolicyINS1_4warp7MmaSimtINS6_ILi32ELi64ELi8EEEfSL_fSE_fSE_NSV_13MmaSimtPolicyINSB_ILi4ELi8EEENSD_19RowMajorInterleavedILi2EEENS6_ILi4ELi4ELi1EEEEELi1ELNS_16ComplexTransformE0ELS14_0EbEENSB_ILi4ELi0EEENSB_ILi0ELi0EEELi1EEENS_21NumericArrayConverterIffLi4ELNS_15FloatRoundStyleE2EEES1B_bEENS_8epilogue11threadblock8EpilogueIS7_S15_Li1ENS1E_22PredicatedTileIteratorINS1E_26OutputTileOptimalThreadMapINS1E_15OutputTileShapeILi128ELi1ELi4ELi4ELi1EEENS1I_ILi1ELi4ELi2ELi1ELi8EEELi256ELi1ELi32EEEfLb0EEENS1D_4warp20FragmentIteratorSimtISX_NS1_6thread3MmaINS6_ILi8ELi8ELi1EEEfSL_fSE_fSE_NS_4arch13OpMultiplyAddEbEESE_S13_EENS1N_16TileIteratorSimtISX_S1U_fSE_S13_EENS1E_18SharedLoadIteratorINS1L_18CompactedThreadMapEfLi4EEENS1D_6thread17LinearCombinationIfLi1EffLNS21_9ScaleType4KindE0ELS1A_2EEENSB_ILi0ELi17EEELi1ELi1EEENS4_30GemmIdentityThreadblockSwizzleILi1EEELb0EEEEEvNT_6ParamsE'
GPGPU-Sim uArch: Shader 15 bind to kernel 1 '_ZN7cutlass6KernelINS_4gemm6kernel4GemmINS1_11threadblock12MmaPipelinedINS1_9GemmShapeILi128ELi128ELi8EEENS_9transform11threadblock22PredicatedTileIteratorINS_11MatrixShapeILi128ELi8EEEfNS_6layout8RowMajorELi1ENS8_30PitchLinearStripminedThreadMapINS_16PitchLinearShapeILi8ELi128EEELi256ELi1EEELi1EEENS9_19RegularTileIteratorISC_fNSD_11ColumnMajorELi1ENS8_33TransposePitchLinearThreadMapSimtISI_EELi4EEENSA_INSB_ILi8ELi128EEEfSE_Li0ENSF_INSG_ILi128ELi8EEELi256ELi1EEELi1EEENSK_ISP_fSE_Li0ESR_Li4EEEfSE_NS4_9MmaPolicyINS1_4warp7MmaSimtINS6_ILi32ELi64ELi8EEEfSL_fSE_fSE_NSV_13MmaSimtPolicyINSB_ILi4ELi8EEENSD_19RowMajorInterleavedILi2EEENS6_ILi4ELi4ELi1EEEEELi1ELNS_16ComplexTransformE0ELS14_0EbEENSB_ILi4ELi0EEENSB_ILi0ELi0EEELi1EEENS_21NumericArrayConverterIffLi4ELNS_15FloatRoundStyleE2EEES1B_bEENS_8epilogue11threadblock8EpilogueIS7_S15_Li1ENS1E_22PredicatedTileIteratorINS1E_26OutputTileOptimalThreadMapINS1E_15OutputTileShapeILi128ELi1ELi4ELi4ELi1EEENS1I_ILi1ELi4ELi2ELi1ELi8EEELi256ELi1ELi32EEEfLb0EEENS1D_4warp20FragmentIteratorSimtISX_NS1_6thread3MmaINS6_ILi8ELi8ELi1EEEfSL_fSE_fSE_NS_4arch13OpMultiplyAddEbEESE_S13_EENS1N_16TileIteratorSimtISX_S1U_fSE_S13_EENS1E_18SharedLoadIteratorINS1L_18CompactedThreadMapEfLi4EEENS1D_6thread17LinearCombinationIfLi1EffLNS21_9ScaleType4KindE0ELS1A_2EEENSB_ILi0ELi17EEELi1ELi1EEENS4_30GemmIdentityThreadblockSwizzleILi1EEELb0EEEEEvNT_6ParamsE'
Destroy streams for kernel 1: size 0
kernel_name = _ZN7cutlass6KernelINS_4gemm6kernel4GemmINS1_11threadblock12MmaPipelinedINS1_9GemmShapeILi128ELi128ELi8EEENS_9transform11threadblock22PredicatedTileIteratorINS_11MatrixShapeILi128ELi8EEEfNS_6layout8RowMajorELi1ENS8_30PitchLinearStripminedThreadMapINS_16PitchLinearShapeILi8ELi128EEELi256ELi1EEELi1EEENS9_19RegularTileIteratorISC_fNSD_11ColumnMajorELi1ENS8_33TransposePitchLinearThreadMapSimtISI_EELi4EEENSA_INSB_ILi8ELi128EEEfSE_Li0ENSF_INSG_ILi128ELi8EEELi256ELi1EEELi1EEENSK_ISP_fSE_Li0ESR_Li4EEEfSE_NS4_9MmaPolicyINS1_4warp7MmaSimtINS6_ILi32ELi64ELi8EEEfSL_fSE_fSE_NSV_13MmaSimtPolicyINSB_ILi4ELi8EEENSD_19RowMajorInterleavedILi2EEENS6_ILi4ELi4ELi1EEEEELi1ELNS_16ComplexTransformE0ELS14_0EbEENSB_ILi4ELi0EEENSB_ILi0ELi0EEELi1EEENS_21NumericArrayConverterIffLi4ELNS_15FloatRoundStyleE2EEES1B_bEENS_8epilogue11threadblock8EpilogueIS7_S15_Li1ENS1E_22PredicatedTileIteratorINS1E_26OutputTileOptimalThreadMapINS1E_15OutputTileShapeILi128ELi1ELi4ELi4ELi1EEENS1I_ILi1ELi4ELi2ELi1ELi8EEELi256ELi1ELi32EEEfLb0EEENS1D_4warp20FragmentIteratorSimtISX_NS1_6thread3MmaINS6_ILi8ELi8ELi1EEEfSL_fSE_fSE_NS_4arch13OpMultiplyAddEbEESE_S13_EENS1N_16TileIteratorSimtISX_S1U_fSE_S13_EENS1E_18SharedLoadIteratorINS1L_18CompactedThreadMapEfLi4EEENS1D_6thread17LinearCombinationIfLi1EffLNS21_9ScaleType4KindE0ELS1A_2EEENSB_ILi0ELi17EEELi1ELi1EEENS4_30GemmIdentityThreadblockSwizzleILi1EEELb0EEEEEvNT_6ParamsE 
kernel_launch_uid = 1 
gpu_sim_cycle = 226643
gpu_sim_insn = 195715072
gpu_ipc =     863.5390
gpu_tot_sim_cycle = 226643
gpu_tot_sim_insn = 195715072
gpu_tot_ipc =     863.5390
gpu_tot_issued_cta = 16
gpu_occupancy = 12.4932% 
gpu_tot_occupancy = 12.4932% 
max_total_param_size = 0
gpu_stall_dramfull = 0
gpu_stall_icnt2sh    = 0
partiton_level_parallism =       1.4458
partiton_level_parallism_total  =       1.4458
partiton_level_parallism_util =       6.9859
partiton_level_parallism_util_total  =       6.9859
L2_BW  =      55.5186 GB/Sec
L2_BW_total  =      55.5186 GB/Sec
gpu_total_sim_rate=494229

========= Core cache stats =========
L1I_cache:
	L1I_total_cache_accesses = 0
	L1I_total_cache_misses = 0
	L1I_total_cache_pending_hits = 0
	L1I_total_cache_reservation_fails = 0
L1D_cache:
	L1D_cache_core[0]: Access = 20480, Miss = 18432, Miss_rate = 0.900, Pending_hits = 0, Reservation_fails = 0
	L1D_cache_core[1]: Access = 20480, Miss = 18432, Miss_rate = 0.900, Pending_hits = 0, Reservation_fails = 0
	L1D_cache_core[2]: Access = 20480, Miss = 18432, Miss_rate = 0.900, Pending_hits = 0, Reservation_fails = 0
	L1D_cache_core[3]: Access = 20480, Miss = 18432, Miss_rate = 0.900, Pending_hits = 0, Reservation_fails = 0
	L1D_cache_core[4]: Access = 20480, Miss = 18432, Miss_rate = 0.900, Pending_hits = 0, Reservation_fails = 0
	L1D_cache_core[5]: Access = 20480, Miss = 18432, Miss_rate = 0.900, Pending_hits = 0, Reservation_fails = 0
	L1D_cache_core[6]: Access = 20480, Miss = 18432, Miss_rate = 0.900, Pending_hits = 0, Reservation_fails = 0
	L1D_cache_core[7]: Access = 20480, Miss = 18432, Miss_rate = 0.900, Pending_hits = 0, Reservation_fails = 0
	L1D_cache_core[8]: Access = 20480, Miss = 18432, Miss_rate = 0.900, Pending_hits = 0, Reservation_fails = 0
	L1D_cache_core[9]: Access = 20480, Miss = 18432, Miss_rate = 0.900, Pending_hits = 0, Reservation_fails = 0
	L1D_cache_core[10]: Access = 20480, Miss = 18432, Miss_rate = 0.900, Pending_hits = 0, Reservation_fails = 0
	L1D_cache_core[11]: Access = 20480, Miss = 18432, Miss_rate = 0.900, Pending_hits = 0, Reservation_fails = 0
	L1D_cache_core[12]: Access = 20480, Miss = 18432, Miss_rate = 0.900, Pending_hits = 0, Reservation_fails = 0
	L1D_cache_core[13]: Access = 20480, Miss = 18432, Miss_rate = 0.900, Pending_hits = 0, Reservation_fails = 0
	L1D_cache_core[14]: Access = 20480, Miss = 18432, Miss_rate = 0.900, Pending_hits = 0, Reservation_fails = 0
	L1D_cache_core[15]: Access = 20480, Miss = 18432, Miss_rate = 0.900, Pending_hits = 0, Reservation_fails = 0
	L1D_cache_core[16]: Access = 0, Miss = 0, Miss_rate = -nan, Pending_hits = 0, Reservation_fails = 0
	L1D_cache_core[17]: Access = 0, Miss = 0, Miss_rate = -nan, Pending_hits = 0, Reservation_fails = 0
	L1D_cache_core[18]: Access = 0, Miss = 0, Miss_rate = -nan, Pending_hits = 0, Reservation_fails = 0
	L1D_cache_core[19]: Access = 0, Miss = 0, Miss_rate = -nan, Pending_hits = 0, Reservation_fails = 0
	L1D_cache_core[20]: Access = 0, Miss = 0, Miss_rate = -nan, Pending_hits = 0, Reservation_fails = 0
	L1D_cache_core[21]: Access = 0, Miss = 0, Miss_rate = -nan, Pending_hits = 0, Reservation_fails = 0
	L1D_cache_core[22]: Access = 0, Miss = 0, Miss_rate = -nan, Pending_hits = 0, Reservation_fails = 0
	L1D_cache_core[23]: Access = 0, Miss = 0, Miss_rate = -nan, Pending_hits = 0, Reservation_fails = 0
	L1D_cache_core[24]: Access = 0, Miss = 0, Miss_rate = -nan, Pending_hits = 0, Reservation_fails = 0
	L1D_cache_core[25]: Access = 0, Miss = 0, Miss_rate = -nan, Pending_hits = 0, Reservation_fails = 0
	L1D_cache_core[26]: Access = 0, Miss = 0, Miss_rate = -nan, Pending_hits = 0, Reservation_fails = 0
	L1D_cache_core[27]: Access = 0, Miss = 0, Miss_rate = -nan, Pending_hits = 0, Reservation_fails = 0
	L1D_cache_core[28]: Access = 0, Miss = 0, Miss_rate = -nan, Pending_hits = 0, Reservation_fails = 0
	L1D_cache_core[29]: Access = 0, Miss = 0, Miss_rate = -nan, Pending_hits = 0, Reservation_fails = 0
	L1D_cache_core[30]: Access = 0, Miss = 0, Miss_rate = -nan, Pending_hits = 0, Reservation_fails = 0
	L1D_cache_core[31]: Access = 0, Miss = 0, Miss_rate = -nan, Pending_hits = 0, Reservation_fails = 0
	L1D_cache_core[32]: Access = 0, Miss = 0, Miss_rate = -nan, Pending_hits = 0, Reservation_fails = 0
	L1D_cache_core[33]: Access = 0, Miss = 0, Miss_rate = -nan, Pending_hits = 0, Reservation_fails = 0
	L1D_cache_core[34]: Access = 0, Miss = 0, Miss_rate = -nan, Pending_hits = 0, Reservation_fails = 0
	L1D_cache_core[35]: Access = 0, Miss = 0, Miss_rate = -nan, Pending_hits = 0, Reservation_fails = 0
	L1D_cache_core[36]: Access = 0, Miss = 0, Miss_rate = -nan, Pending_hits = 0, Reservation_fails = 0
	L1D_cache_core[37]: Access = 0, Miss = 0, Miss_rate = -nan, Pending_hits = 0, Reservation_fails = 0
	L1D_cache_core[38]: Access = 0, Miss = 0, Miss_rate = -nan, Pending_hits = 0, Reservation_fails = 0
	L1D_cache_core[39]: Access = 0, Miss = 0, Miss_rate = -nan, Pending_hits = 0, Reservation_fails = 0
	L1D_cache_core[40]: Access = 0, Miss = 0, Miss_rate = -nan, Pending_hits = 0, Reservation_fails = 0
	L1D_cache_core[41]: Access = 0, Miss = 0, Miss_rate = -nan, Pending_hits = 0, Reservation_fails = 0
	L1D_cache_core[42]: Access = 0, Miss = 0, Miss_rate = -nan, Pending_hits = 0, Reservation_fails = 0
	L1D_cache_core[43]: Access = 0, Miss = 0, Miss_rate = -nan, Pending_hits = 0, Reservation_fails = 0
[...]
dram[17]:       192       192       192       192       192       192       192       192       192       192       192       192       192       192       192       192 
dram[18]:       192       192       192       192       192       192       192       192       192       192       192       192       192       192       192       192 
dram[19]:       192       192       192       192       192       192       192       192       192       192       192       192       192       192       192       192 
dram[20]:       192       192       192       192       192       192       192       192       192       192       192       192       192       192       192       192 
dram[21]:       192       192       192       192       192       192       192       192       192       192       192       192       192       192       192       192 
dram[22]:       192       192       192       192       192       192       192       192       192       192       192       192       192       192       192       192 
dram[23]:       192       192       192       192       192       192       192       192       192       192       192       192       192       192       192       192 
dram[24]:       192       192       192       192       192       192       192       192       192       192       192       192       192       192       192       192 
dram[25]:       192       192       192       192       192       192       192       192       192       192       192       192       192       192       192       192 
dram[26]:       192       192       192       192       192       192       192       192       192       192       192       192       192       192       192       192 
dram[27]:       192       192       192       192       192       192       192       192       192       192       192       192       192       192       192       192 
dram[28]:       192       192       192       192       192       192       192       192       192       192       192       192       192       192       192       192 
dram[29]:       192       192       192       192       192       192       192       192       192       192       192       192       192       192       192       192 
dram[30]:       192       192       192       192       192       192       192       192       192       192       192       192       192       192       192       192 
dram[31]:       192       192       192       192       192       192       192       192       192       192       192       192       192       192       192       192 
total dram reads = 98304
bank skew: 192/192 = 1.00
chip skew: 3072/3072 = 1.00
number of total write accesses:
dram[0]:         0         0         0         0         0         0         0         0         0         0         0         0         0         0         0         0 
dram[1]:         0         0         0         0         0         0         0         0         0         0         0         0         0         0         0         0 
dram[2]:         0         0         0         0         0         0         0         0         0         0         0         0         0         0         0         0 
dram[3]:         0         0         0         0         0         0         0         0         0         0         0         0         0         0         0         0 
dram[4]:         0         0         0         0         0         0         0         0         0         0         0         0         0         0         0         0 
dram[5]:         0         0         0         0         0         0         0         0         0         0         0         0         0         0         0         0 
dram[6]:         0         0         0         0         0         0         0         0         0         0         0         0         0         0         0         0 
dram[7]:         0         0         0         0         0         0         0         0         0         0         0         0         0         0         0         0 
dram[8]:         0         0         0         0         0         0         0         0         0         0         0         0         0         0         0         0 
dram[9]:         0         0         0         0         0         0         0         0         0         0         0         0         0         0         0         0 
dram[10]:         0         0         0         0         0         0         0         0         0         0         0         0         0         0         0         0 
dram[11]:         0         0         0         0         0         0         0         0         0         0         0         0         0         0         0         0 
dram[12]:         0         0         0         0         0         0         0         0         0         0         0         0         0         0         0         0 
dram[13]:         0         0         0         0         0         0         0         0         0         0         0         0         0         0         0         0 
dram[14]:         0         0         0         0         0         0         0         0         0         0         0         0         0         0         0         0 
dram[15]:         0         0         0         0         0         0         0         0         0         0         0         0         0         0         0         0 
dram[16]:         0         0         0         0         0         0         0         0         0         0         0         0         0         0         0         0 
dram[17]:         0         0         0         0         0         0         0         0         0         0         0         0         0         0         0         0 
dram[18]:         0         0         0         0         0         0         0         0         0         0         0         0         0         0         0         0 
dram[19]:         0         0         0         0         0         0         0         0         0         0         0         0         0         0         0         0 
dram[20]:         0         0         0         0         0         0         0         0         0         0         0         0         0         0         0         0 
dram[21]:         0         0         0         0         0         0         0         0         0         0         0         0         0         0         0         0 
dram[22]:         0         0         0         0         0         0         0         0         0         0         0         0         0         0         0         0 
dram[23]:         0         0         0         0         0         0         0         0         0         0         0         0         0         0         0         0 
dram[24]:         0         0         0         0         0         0         0         0         0         0         0         0         0         0         0         0 
dram[25]:         0         0         0         0         0         0         0         0         0         0         0         0         0         0         0         0 
dram[26]:         0         0         0         0         0         0         0         0         0         0         0         0         0         0         0         0 
dram[27]:         0         0         0         0         0         0         0         0         0         0         0         0         0         0         0         0 
dram[28]:         0         0         0         0         0         0         0         0         0         0         0         0         0         0         0         0 
dram[29]:         0         0         0         0         0         0         0         0         0         0         0         0         0         0         0         0 
dram[30]:         0         0         0         0         0         0         0         0         0         0         0         0         0         0         0         0 
dram[31]:         0         0         0         0         0         0         0         0         0         0         0         0         0         0         0         0 
total dram writes = 0
min_bank_accesses = 0!
min_chip_accesses = 0!
average mf latency per bank:
dram[0]:        977       976       948       947       929       922       939       932       942       929       957       951       925       914       911       913
dram[1]:        982       993       942       953       929       916       936       930       951       935       955       950       919       918       919       926
dram[2]:        969       979       907       930       915       908       932       938       956       961       953       959       901       895       906       923
dram[3]:        968       974       930       937       917       898       938       946       962       962       962       956       901       903       915       917
dram[4]:        960       963       955       935       915       907       929       943       930       913       964       946       895       915       874       891
dram[5]:        954       971       943       933       915       901       934       929       942       920       950       960       906       906       876       892
dram[6]:        970       991       982       966       913       919       958       933       950       924       963       948       934       945       893       899
dram[7]:        979      1012       961       958       918       918       954       930       961       943       956       952       915       933       898       909
dram[8]:        977       976       939       943       942       920       937       925       956       941       967       968       923       916       906       909
dram[9]:        972       979       925       930       943       927       935       929       955       944       966       965       907       919       903       919
dram[10]:        971       985       949       943       924       916       949       941       965       966       946       945       926       923       916       917
dram[11]:        973       977       943       933       918       906       948       944       954       960       945       957       927       918       925       920
dram[12]:        980       991       927       934       924       913       916       925       928       918       937       939       900       911       901       906
dram[13]:        969       989       953       940       925       915       944       935       937       916       934       951       921       919       892       898
dram[14]:        968       991       942       941       924       922       939       931       959       945       959       951       905       918       892       892
dram[15]:        970       987       933       939       913       914       931       924       968       949       953       942       902       918       885       899
dram[16]:        981       989       933       934       927       953       926       927       948       948       957       963       897       906       913       918
dram[17]:        984       992       930       944       957       935       930       935       964       957       969       971       900       906       919       918
dram[18]:        969       979       923       923       920       912       936       928       966       959       951       950       892       903       903       910
dram[19]:        983       991       927       943       900       908       926       938       975       979       966       959       901       909       920       918
dram[20]:        960       963       933       929       900       911       934       927       936       925       930       947       896       904       880       886
dram[21]:        970       976       934       936       892       897       937       932       958       947       937       956       903       907       880       884
dram[22]:        978       998       939       938       910       934       923       932       924       931       939       954       902       913       896       903
dram[23]:        996      1002       927       937       932       928       929       927       973       955       958       966       909       917       896       903
dram[24]:        974       975       931       937       923       935       930       929       951       935       972       969       917       906       902       916
dram[25]:        977       981       945       937       943       925       924       923       973       942       971       969       911       912       913       920
dram[26]:        970       969       935       922       921       918       952       948       967       952       962       952       897       899       905       906
dram[27]:        972       976       927       918       901       913       950       940       958       962       963       962       912       931       900       917
dram[28]:        964       957       939       934       895       902       933       937       919       920       926       940       897       908       889       891
dram[29]:        979       975       933       941       904       907       926       956       962       944       930       963       913       911       876       886
dram[30]:        971       982       931       932       908       924       914       928       935       943       942       959       900       912       893       894
dram[31]:        984       995       940       936       910       913       918       919       941       938       945       966       918       930       889       903
maximum mf latency per bank:
dram[0]:        482       419       502       490       485       440       495       429       480       485       516       468       490       440       453       418
dram[1]:        489       488       484       479       453       426       459       444       483       449       484       516       480       456       463       495
dram[2]:        423       420       482       472       486       455       454       440       471       430       468       479       441       422       434       437
dram[3]:        399       412       524       482       509       428       460       427       497       434       458       454       460       427       468       416
dram[4]:        395       402       516       441       451       425       445       406       471       414       497       459       454       438       401       416
dram[5]:        396       407       484       431       430       414       438       405       470       415       502       512       459       410       455       424
dram[6]:        445       422       484       505       440       483       528       435       519       495       607       460       548       547       417       412
dram[7]:        451       499       482       480       533       415       443       554       491       442       529       463       468       453       486       492
dram[8]:        483       449       515       487       476       430       439       510       467       436       520       535       501       473       456       391
dram[9]:        461       448       473       469       461       466       461       446       488       448       548       478       458       434       443       435
dram[10]:        420       429       502       441       477       445       489       442       471       435       461       484       462       517       467       421
dram[11]:        431       428       540       501       439       444       439       435       463       445       462       470       508       486       463       426
dram[12]:        429       452       484       432       486       484       407       421       471       414       471       454       441       423       483       417
dram[13]:        420       399       544       470       443       432       457       408       456       427       466       459       529       505       446       425
dram[14]:        457       436       508       427       461       418       478       436       548       450       578       502       446       445       413       461
dram[15]:        448       428       502       446       460       447       439       531       456       436       528       462       463       453       449       419
dram[16]:        447       426       493       456       479       456       443       422       508       467       466       507       472       424       415       447
dram[17]:        481       443       516       475       474       452       429       475       529       467       472       513       455       417       465       438
dram[18]:        411       406       471       455       439       452       437       438       488       429       503       481       446       413       450       461
dram[19]:        415       426       483       468       441       467       465       449       534       542       463       479       429       411       462       424
dram[20]:        408       414       495       425       432       463       458       437       483       438       466       490       397       397       402       381
dram[21]:        404       399       505       420       427       446       483       419       499       463       530       481       425       403       435       439
dram[22]:        454       468       440       415       404       445       499       488       428       483       482       461       395       407       432       421
dram[23]:        455       448       438       432       471       433       498       466       514       470       505       544       433       414       441       388
dram[24]:        448       418       469       467       510       469       511       465       508       447       528       502       492       432       421       393
dram[25]:        441       436       500       463       499       447       407       505       535       462       477       549       443       435       432       473
dram[26]:        418       436       498       462       476       452       454       481       507       453       493       523       446       407       409       462
dram[27]:        404       411       471       539       456       422       460       442       502       450       469       483       547       556       428       396
dram[28]:        391       385       494       422       445       428       495       424       477       433       543       477       399       408       413       395
dram[29]:        407       408       485       524       452       415       434       464       503       440       466       497       516       491       397       389
dram[30]:        428       421       466       418       444       526       511       463       475       502       529       475       398       414       493       433
dram[31]:        438       420       470       475       528       419       484       510       535       454       524       485       499       506       388       384
Memory Partition 0: 
Cache L2_bank_000:
MSHR contents

Cache L2_bank_001:
MSHR contents

In Dram Latency Queue (total = 0): 
DRAM[0]: 16 bks, busW=16 BL=2 CL=14, tRRD=4 tCCD=1, tRCD=14 tRAS=33 tRP=14 tRC=47
n_cmd=188869 n_nop=185277 n_act=282 n_pre=266 n_ref_event=0 n_req=3072 n_rd=3072 n_rd_L2_A=0 n_write=0 n_wr_bk=0 bw_util=0.01627
n_activity=19196 dram_eff=0.16
bk0: 192a 188259i 0.908203
Row_Buffer_Locality_read = 0.908203
Row_Buffer_Locality_write = -nan
Bank_Level_Parallism = 1.192326
Bank_Level_Parallism_Col = 1.114988
Bank_Level_Parallism_Ready = 1.024740
write_to_read_ratio_blp_rw_average = 0.000000
GrpLevelPara = 1.099524 

BW Util details:
bwutil = 